
     RDKit          2D

 31 33  0  0  0  0  0  0  0  0999 V2000
    3.0000    0.0000    0.0000 N   0  0  0  0  0  0  0  0  0  0  0  0
    1.5000    0.0000    0.0000 C   0  0  0  0  0  0  0  0  0  0  0  0
    0.7500   -1.2990    0.0000 N   0  0  0  0  0  0  0  0  0  0  0  0
   -0.7500   -1.2990    0.0000 C   0  0  0  0  0  0  0  0  0  0  0  0
   -1.5000    0.0000    0.0000 N   0  0  0  0  0  0  0  0  0  0  0  0
   -0.7500    1.2990    0.0000 C   0  0  0  0  0  0  0  0  0  0  0  0
    0.7500    1.2990    0.0000 C   0  0  0  0  0  0  0  0  0  0  0  0
    1.2135    2.7256    0.0000 N   0  0  0  0  0  0  0  0  0  0  0  0
    0.0000    3.6073    0.0000 C   0  0  0  0  0  0  0  0  0  0  0  0
   -1.2135    2.7256    0.0000 N   0  0  0  0  0  0  0  0  0  0  0  0
   -2.6401    3.1891    0.0000 C   0  0  0  0  0  0  0  0  0  0  0  0
   -3.8536    2.3075    0.0000 O   0  0  0  0  0  0  0  0  0  0  0  0
   -5.0672    3.1891    0.0000 C   0  0  0  0  0  0  0  0  0  0  0  0
   -6.4937    2.7256    0.0000 C   0  0  0  0  0  0  0  0  0  0  0  0
   -7.6085    3.7293    0.0000 O   0  0  0  0  0  0  0  0  0  0  0  0
   -9.0350    3.2658    0.0000 P   0  0  0  0  0  0  0  0  0  0  0  0
   -8.5715    1.8392    0.0000 O   0  0  0  0  0  0  0  0  0  0  0  0
   -9.4986    4.6924    0.0000 O   0  0  0  0  0  1  0  0  0  0  0  0
  -10.4616    2.8023    0.0000 O   0  0  0  0  0  0  0  0  0  0  0  0
  -10.7735    1.3350    0.0000 S   0  0  0  0  0  0  0  0  0  0  0  0
   -9.3063    1.0232    0.0000 O   0  0  0  0  0  0  0  0  0  0  0  0
  -12.2407    1.6469    0.0000 O   0  0  0  0  0  0  0  0  0  0  0  0
  -11.0854   -0.1322    0.0000 O   0  0  0  0  0  1  0  0  0  0  0  0
   -4.6036    4.6157    0.0000 C   0  0  0  0  0  0  0  0  0  0  0  0
   -5.4853    5.8293    0.0000 O   0  0  0  0  0  0  0  0  0  0  0  0
   -4.8752    7.1996    0.0000 P   0  0  0  0  0  0  0  0  0  0  0  0
   -6.2455    7.8097    0.0000 O   0  0  0  0  0  0  0  0  0  0  0  0
   -3.5049    6.5895    0.0000 O   0  0  0  0  0  1  0  0  0  0  0  0
   -4.2651    8.5699    0.0000 O   0  0  0  0  0  1  0  0  0  0  0  0
   -3.1036    4.6157    0.0000 C   0  0  0  0  0  0  0  0  0  0  0  0
   -2.2220    5.8293    0.0000 O   0  0  0  0  0  0  0  0  0  0  0  0
  1  2  1  0
  2  3  2  0
  3  4  1  0
  4  5  2  0
  5  6  1  0
  6  7  2  0
  7  8  1  0
  8  9  2  0
  9 10  1  0
 11 10  1  6
 11 12  1  0
 12 13  1  0
 13 14  1  6
 14 15  1  0
 15 16  1  0
 16 17  2  0
 16 18  1  0
 16 19  1  0
 19 20  1  0
 20 21  2  0
 20 22  2  0
 20 23  1  0
 13 24  1  0
 24 25  1  1
 25 26  1  0
 26 27  2  0
 26 28  1  0
 26 29  1  0
 24 30  1  0
 30 31  1  1
  7  2  1  0
 30 11  1  0
 10  6  1  0
M  CHG  4  18  -1  23  -1  28  -1  29  -1
M  END
