
     RDKit          2D

 36 39  0  0  0  0  0  0  0  0999 V2000
   -2.3313   -3.0000    0.0000 N   0  0  0  0  0  0  0  0  0  0  0  0
   -2.3313   -1.5000    0.0000 C   0  0  0  0  0  0  0  0  0  0  0  0
   -1.0323   -0.7500    0.0000 C   0  0  0  0  0  0  0  0  0  0  0  0
   -1.0323    0.7500    0.0000 C   0  0  0  0  0  0  0  0  0  0  0  0
   -2.3313    1.5000    0.0000 N   0  0  0  0  0  0  0  0  0  0  0  0
   -3.6304    0.7500    0.0000 C   0  0  0  0  0  0  0  0  0  0  0  0
   -3.6304   -0.7500    0.0000 N   0  0  0  0  0  0  0  0  0  0  0  0
   -4.9294   -1.5000    0.0000 C   0  0  0  0  0  0  0  0  0  0  0  0
   -5.0862   -2.9918    0.0000 O   0  0  0  0  0  0  0  0  0  0  0  0
   -6.5534   -3.3037    0.0000 C   0  0  0  0  0  0  0  0  0  0  0  0
   -7.1635   -4.6740    0.0000 C   0  0  0  0  0  0  0  0  0  0  0  0
   -8.6553   -4.8308    0.0000 O   0  0  0  0  0  0  0  0  0  0  0  0
   -9.2654   -6.2011    0.0000 P   0  0  0  0  0  0  0  0  0  0  0  0
  -10.6357   -5.5910    0.0000 O   0  0  0  0  0  0  0  0  0  0  0  0
   -7.8951   -6.8112    0.0000 O   0  0  0  0  0  1  0  0  0  0  0  0
   -9.8755   -7.5714    0.0000 O   0  0  0  0  0  1  0  0  0  0  0  0
   -7.3034   -2.0046    0.0000 C   0  0  0  0  0  0  0  0  0  0  0  0
   -8.7952   -1.8478    0.0000 O   0  0  0  0  0  0  0  0  0  0  0  0
   -6.2997   -0.8899    0.0000 C   0  0  0  0  0  0  0  0  0  0  0  0
   -6.6116    0.5773    0.0000 O   0  0  0  0  0  0  0  0  0  0  0  0
    0.3943    1.2135    0.0000 N   0  0  0  0  0  0  0  0  0  0  0  0
    0.8578    2.6401    0.0000 C   0  0  0  0  0  0  0  0  0  0  0  0
   -0.0239    3.8536    0.0000 O   0  0  0  0  0  0  0  0  0  0  0  0
    0.8578    5.0672    0.0000 C   0  0  0  0  0  0  0  0  0  0  0  0
    0.3943    6.4937    0.0000 C   0  0  0  0  0  0  0  0  0  0  0  0
    1.3980    7.6085    0.0000 O   0  0  0  0  0  0  0  0  0  0  0  0
    0.9345    9.0350    0.0000 P   0  0  0  0  0  0  0  0  0  0  0  0
    2.3611    9.4986    0.0000 O   0  0  0  0  0  0  0  0  0  0  0  0
   -0.4921    8.5715    0.0000 O   0  0  0  0  0  1  0  0  0  0  0  0
    0.4709   10.4616    0.0000 O   0  0  0  0  0  1  0  0  0  0  0  0
    2.2844    4.6036    0.0000 C   0  0  0  0  0  0  0  0  0  0  0  0
    3.4979    5.4853    0.0000 O   0  0  0  0  0  0  0  0  0  0  0  0
    2.2844    3.1036    0.0000 C   0  0  0  0  0  0  0  0  0  0  0  0
    3.4979    2.2220    0.0000 O   0  0  0  0  0  0  0  0  0  0  0  0
    1.2760    0.0000    0.0000 C   0  0  0  0  0  0  0  0  0  0  0  0
    0.3943   -1.2135    0.0000 N   0  0  0  0  0  0  0  0  0  0  0  0
  1  2  2  0
  2  3  1  0
  3  4  2  0
  4  5  1  0
  5  6  2  0
  6  7  1  0
  8  7  1  6
  8  9  1  0
  9 10  1  0
 10 11  1  6
 11 12  1  0
 12 13  1  0
 13 14  2  0
 13 15  1  0
 13 16  1  0
 10 17  1  0
 17 18  1  1
 17 19  1  0
 19 20  1  1
  4 21  1  0
 22 21  1  6
 22 23  1  0
 23 24  1  0
 24 25  1  6
 25 26  1  0
 26 27  1  0
 27 28  2  0
 27 29  1  0
 27 30  1  0
 24 31  1  0
 31 32  1  1
 31 33  1  0
 33 34  1  1
 21 35  1  0
 35 36  2  0
  7  2  1  0
 19  8  1  0
 33 22  1  0
 36  3  1  0
M  CHG  4  15  -1  16  -1  29  -1  30  -1
M  END
