
     RDKit          2D

 53 58  0  0  0  0  0  0  0  0999 V2000
    3.0000    0.0000    0.0000 N   0  0  0  0  0  0  0  0  0  0  0  0
    1.5000    0.0000    0.0000 C   0  0  0  0  0  0  0  0  0  0  0  0
    0.7500   -1.2990    0.0000 N   0  0  0  0  0  0  0  0  0  0  0  0
   -0.7500   -1.2990    0.0000 C   0  0  0  0  0  0  0  0  0  0  0  0
   -1.5000    0.0000    0.0000 N   0  0  0  0  0  0  0  0  0  0  0  0
   -0.7500    1.2990    0.0000 C   0  0  0  0  0  0  0  0  0  0  0  0
    0.7500    1.2990    0.0000 C   0  0  0  0  0  0  0  0  0  0  0  0
    1.2135    2.7256    0.0000 N   0  0  0  0  0  0  0  0  0  0  0  0
    0.0000    3.6073    0.0000 C   0  0  0  0  0  0  0  0  0  0  0  0
   -1.2135    2.7256    0.0000 N   0  0  0  0  0  0  0  0  0  0  0  0
   -2.6401    3.1891    0.0000 C   0  0  0  0  0  0  0  0  0  0  0  0
   -3.8536    2.3075    0.0000 O   0  0  0  0  0  0  0  0  0  0  0  0
   -5.0672    3.1891    0.0000 C   0  0  0  0  0  0  0  0  0  0  0  0
   -6.4937    2.7256    0.0000 C   0  0  0  0  0  0  0  0  0  0  0  0
   -7.6085    3.7293    0.0000 O   0  0  0  0  0  0  0  0  0  0  0  0
   -9.0350    3.2658    0.0000 P   0  0  0  0  0  0  0  0  0  0  0  0
   -8.5715    1.8392    0.0000 O   0  0  0  0  0  0  0  0  0  0  0  0
   -9.4986    4.6924    0.0000 O   0  0  0  0  0  1  0  0  0  0  0  0
  -10.4616    2.8023    0.0000 O   0  0  0  0  0  0  0  0  0  0  0  0
  -10.7735    1.3350    0.0000 P   0  0  0  0  0  0  0  0  0  0  0  0
   -9.3063    1.0232    0.0000 O   0  0  0  0  0  0  0  0  0  0  0  0
  -12.2407    1.6469    0.0000 O   0  0  0  0  0  1  0  0  0  0  0  0
  -11.0854   -0.1322    0.0000 O   0  0  0  0  0  0  0  0  0  0  0  0
   -9.9707   -1.1359    0.0000 P   0  0  0  0  0  0  0  0  0  0  0  0
  -10.9743   -2.2506    0.0000 O   0  0  0  0  0  0  0  0  0  0  0  0
   -8.9670   -0.0212    0.0000 O   0  0  0  0  0  1  0  0  0  0  0  0
   -8.8559   -2.1396    0.0000 O   0  0  0  0  0  0  0  0  0  0  0  0
   -7.4293   -1.6760    0.0000 P   0  0  0  0  0  0  0  0  0  0  0  0
   -6.9658   -3.1026    0.0000 O   0  0  0  0  0  0  0  0  0  0  0  0
   -7.8929   -0.2495    0.0000 O   0  0  0  0  0  1  0  0  0  0  0  0
   -6.0028   -1.2125    0.0000 O   0  0  0  0  0  0  0  0  0  0  0  0
   -4.8880   -2.2162    0.0000 C   0  0  0  0  0  0  0  0  0  0  0  0
   -5.1999   -3.6834    0.0000 C   0  0  0  0  0  0  0  0  0  0  0  0
   -4.1962   -4.7982    0.0000 O   0  0  0  0  0  0  0  0  0  0  0  0
   -4.9462   -6.0972    0.0000 C   0  0  0  0  0  0  0  0  0  0  0  0
   -4.3361   -7.4675    0.0000 N   0  0  0  0  0  0  0  0  0  0  0  0
   -2.8689   -7.7794    0.0000 C   0  0  0  0  0  0  0  0  0  0  0  0
   -2.7121   -9.2712    0.0000 N   0  0  0  0  0  0  0  0  0  0  0  0
   -4.0824   -9.8813    0.0000 C   0  0  0  0  0  0  0  0  0  0  0  0
   -5.0861   -8.7665    0.0000 C   0  0  0  0  0  0  0  0  0  0  0  0
   -6.5533   -9.0784    0.0000 N   0  0  0  0  0  0  0  0  0  0  0  0
   -7.0169  -10.5050    0.0000 C   0  0  0  0  0  0  0  0  0  0  0  0
   -6.0132  -11.6197    0.0000 N   0  0  0  0  0  0  0  0  0  0  0  0
   -4.5459  -11.3078    0.0000 C   0  0  0  0  0  0  0  0  0  0  0  0
   -3.5422  -12.4226    0.0000 N   0  0  0  0  0  0  0  0  0  0  0  0
   -6.4134   -5.7853    0.0000 C   0  0  0  0  0  0  0  0  0  0  0  0
   -7.5282   -6.7890    0.0000 O   0  0  0  0  0  0  0  0  0  0  0  0
   -6.5702   -4.2935    0.0000 C   0  0  0  0  0  0  0  0  0  0  0  0
   -7.8693   -3.5435    0.0000 O   0  0  0  0  0  0  0  0  0  0  0  0
   -4.6036    4.6157    0.0000 C   0  0  0  0  0  0  0  0  0  0  0  0
   -5.4853    5.8293    0.0000 O   0  0  0  0  0  0  0  0  0  0  0  0
   -3.1036    4.6157    0.0000 C   0  0  0  0  0  0  0  0  0  0  0  0
   -2.2220    5.8293    0.0000 O   0  0  0  0  0  0  0  0  0  0  0  0
  1  2  1  0
  2  3  2  0
  3  4  1  0
  4  5  2  0
  5  6  1  0
  6  7  2  0
  7  8  1  0
  8  9  2  0
  9 10  1  0
 11 10  1  6
 11 12  1  0
 12 13  1  0
 13 14  1  6
 14 15  1  0
 15 16  1  0
 16 17  2  0
 16 18  1  0
 16 19  1  0
 19 20  1  0
 20 21  2  0
 20 22  1  0
 20 23  1  0
 23 24  1  0
 24 25  2  0
 24 26  1  0
 24 27  1  0
 27 28  1  0
 28 29  2  0
 28 30  1  0
 28 31  1  0
 31 32  1  0
 33 32  1  1
 33 34  1  0
 34 35  1  0
 35 36  1  1
 36 37  1  0
 37 38  2  0
 38 39  1  0
 39 40  2  0
 40 41  1  0
 41 42  2  0
 42 43  1  0
 43 44  2  0
 44 45  1  0
 35 46  1  0
 46 47  1  6
 46 48  1  0
 48 49  1  6
 13 50  1  0
 50 51  1  1
 50 52  1  0
 52 53  1  1
  7  2  1  0
 52 11  1  0
 10  6  1  0
 48 33  1  0
 40 36  1  0
 44 39  1  0
M  CHG  4  18  -1  22  -1  26  -1  30  -1
M  END
