
     RDKit          2D

 36 39  0  0  0  0  0  0  0  0999 V2000
    3.0000    0.0000    0.0000 N   0  0  0  0  0  0  0  0  0  0  0  0
    1.5000    0.0000    0.0000 C   0  0  0  0  0  0  0  0  0  0  0  0
    0.7500   -1.2990    0.0000 C   0  0  0  0  0  0  0  0  0  0  0  0
    1.2135   -2.7256    0.0000 N   0  0  0  0  0  0  0  0  0  0  0  0
   -0.0000   -3.6073    0.0000 C   0  0  0  0  0  0  0  0  0  0  0  0
   -1.2135   -2.7256    0.0000 N   0  0  0  0  0  0  0  0  0  0  0  0
   -2.6401   -3.1891    0.0000 C   0  0  0  0  0  0  0  0  0  0  0  0
   -3.1036   -4.6157    0.0000 O   0  0  0  0  0  0  0  0  0  0  0  0
   -4.6036   -4.6157    0.0000 C   0  0  0  0  0  0  0  0  0  0  0  0
   -5.4853   -5.8293    0.0000 C   0  0  0  0  0  0  0  0  0  0  0  0
   -6.9771   -5.6725    0.0000 O   0  0  0  0  0  0  0  0  0  0  0  0
   -7.8588   -6.8860    0.0000 P   0  0  0  0  0  0  0  0  0  0  0  0
   -6.6452   -7.7677    0.0000 O   0  0  0  0  0  0  0  0  0  0  0  0
   -9.0723   -6.0043    0.0000 O   0  0  0  0  0  1  0  0  0  0  0  0
   -8.7405   -8.0995    0.0000 O   0  0  0  0  0  0  0  0  0  0  0  0
   -8.1303   -9.4698    0.0000 P   0  0  0  0  0  0  0  0  0  0  0  0
   -9.5007  -10.0799    0.0000 O   0  0  0  0  0  0  0  0  0  0  0  0
   -6.7600   -8.8597    0.0000 O   0  0  0  0  0  1  0  0  0  0  0  0
   -7.5202  -10.8402    0.0000 O   0  0  0  0  0  0  0  0  0  0  0  0
   -6.0285  -10.9969    0.0000 C   0  0  0  0  0  0  0  0  0  0  0  0
   -5.4184  -12.3673    0.0000 C   0  0  0  0  0  0  0  0  0  0  0  0
   -3.9511  -12.6791    0.0000 O   0  0  0  0  0  0  0  0  0  0  0  0
   -3.7943  -14.1709    0.0000 C   0  0  0  0  0  0  0  0  0  0  0  0
   -2.4953  -14.9209    0.0000 O   0  0  0  0  0  0  0  0  0  0  0  0
   -5.1647  -14.7810    0.0000 C   0  0  0  0  0  0  0  0  0  0  0  0
   -5.4765  -16.2482    0.0000 O   0  0  0  0  0  0  0  0  0  0  0  0
   -6.1684  -13.6663    0.0000 C   0  0  0  0  0  0  0  0  0  0  0  0
   -7.6601  -13.8231    0.0000 O   0  0  0  0  0  0  0  0  0  0  0  0
   -5.0672   -3.1891    0.0000 C   0  0  0  0  0  0  0  0  0  0  0  0
   -6.4937   -2.7256    0.0000 O   0  0  0  0  0  0  0  0  0  0  0  0
   -3.8536   -2.3075    0.0000 C   0  0  0  0  0  0  0  0  0  0  0  0
   -3.8536   -0.8075    0.0000 O   0  0  0  0  0  0  0  0  0  0  0  0
   -0.7500   -1.2990    0.0000 C   0  0  0  0  0  0  0  0  0  0  0  0
   -1.5000    0.0000    0.0000 N   0  0  0  0  0  0  0  0  0  0  0  0
   -0.7500    1.2990    0.0000 C   0  0  0  0  0  0  0  0  0  0  0  0
    0.7500    1.2990    0.0000 N   0  0  0  0  0  0  0  0  0  0  0  0
  1  2  1  0
  2  3  2  0
  3  4  1  0
  4  5  2  0
  5  6  1  0
  7  6  1  6
  7  8  1  0
  8  9  1  0
  9 10  1  6
 10 11  1  0
 11 12  1  0
 12 13  2  0
 12 14  1  0
 12 15  1  0
 15 16  1  0
 16 17  2  0
 16 18  1  0
 16 19  1  0
 19 20  1  0
 21 20  1  1
 21 22  1  0
 22 23  1  0
 23 24  1  0
 23 25  1  0
 25 26  1  6
 25 27  1  0
 27 28  1  6
  9 29  1  0
 29 30  1  1
 29 31  1  0
 31 32  1  1
  6 33  1  0
 33 34  2  0
 34 35  1  0
 35 36  2  0
 36  2  1  0
 33  3  1  0
 31  7  1  0
 27 21  1  0
M  CHG  2  14  -1  18  -1
M  END
