
     RDKit          2D

 42 46  0  0  0  0  0  0  0  0999 V2000
    3.5260    1.2990    0.0000 C   0  0  0  0  0  0  0  0  0  0  0  0
    2.7760    0.0000    0.0000 C   0  0  0  0  0  0  0  0  0  0  0  0
    1.2760    0.0000    0.0000 C   0  0  0  0  0  0  0  0  0  0  0  0
    0.3943    1.2135    0.0000 C   0  0  0  0  0  0  0  0  0  0  0  0
    0.7561    3.1293    0.0000 C   0  0  0  0  0  0  0  0  0  0  0  0
    0.2369    4.5365    0.0000 C   0  0  0  0  0  0  0  0  0  0  0  0
    0.7004    5.9631    0.0000 C   0  0  0  0  0  0  0  0  0  0  0  0
    2.1270    6.4267    0.0000 C   0  0  0  0  0  0  0  0  0  0  0  0
   -0.5131    6.8448    0.0000 C   0  0  0  0  0  0  0  0  0  0  0  0
   -0.5131    8.3448    0.0000 C   0  0  0  0  0  0  0  0  0  0  0  0
   -1.8121    9.0948    0.0000 C   0  0  0  0  0  0  0  0  0  0  0  0
   -2.1435    6.2660    0.0000 C   0  0  0  0  0  0  0  0  0  0  0  0
   -3.6424    6.3249    0.0000 C   0  0  0  0  0  0  0  0  0  0  0  0
   -5.0496    5.8057    0.0000 C   0  0  0  0  0  0  0  0  0  0  0  0
   -6.4762    6.2693    0.0000 C   0  0  0  0  0  0  0  0  0  0  0  0
   -6.9398    7.6958    0.0000 C   0  0  0  0  0  0  0  0  0  0  0  0
   -7.3579    5.0557    0.0000 C   0  0  0  0  0  0  0  0  0  0  0  0
   -8.8579    5.0557    0.0000 C   0  0  0  0  0  0  0  0  0  0  0  0
   -9.6079    3.7567    0.0000 C   0  0  0  0  0  0  0  0  0  0  0  0
  -11.1079    3.7567    0.0000 C   0  0  0  0  0  0  0  0  0  0  0  0
  -11.8579    5.0557    0.0000 O   0  0  0  0  0  0  0  0  0  0  0  0
  -11.8579    2.4577    0.0000 O   0  0  0  0  0  1  0  0  0  0  0  0
   -6.7791    3.4253    0.0000 C   0  0  0  0  0  0  0  0  0  0  0  0
   -6.8380    1.9265    0.0000 C   0  0  0  0  0  0  0  0  0  0  0  0
   -6.3188    0.5192    0.0000 C   0  0  0  0  0  0  0  0  0  0  0  0
   -6.7824   -0.9074    0.0000 C   0  0  0  0  0  0  0  0  0  0  0  0
   -8.2089   -1.3709    0.0000 C   0  0  0  0  0  0  0  0  0  0  0  0
   -9.3237   -0.3672    0.0000 C   0  0  0  0  0  0  0  0  0  0  0  0
  -10.7502   -0.8308    0.0000 C   0  0  0  0  0  0  0  0  0  0  0  0
  -11.0621   -2.2980    0.0000 O   0  0  0  0  0  0  0  0  0  0  0  0
  -11.8650    0.1729    0.0000 O   0  0  0  0  0  1  0  0  0  0  0  0
   -5.5688   -1.7891    0.0000 C   0  0  0  0  0  0  0  0  0  0  0  0
   -5.5688   -3.2891    0.0000 C   0  0  0  0  0  0  0  0  0  0  0  0
   -3.9384   -1.2103    0.0000 C   0  0  0  0  0  0  0  0  0  0  0  0
   -2.4396   -1.2692    0.0000 C   0  0  0  0  0  0  0  0  0  0  0  0
   -1.0323   -0.7500    0.0000 C   0  0  0  0  0  0  0  0  0  0  0  0
    0.3943   -1.2135    0.0000 C   0  0  0  0  0  0  0  0  0  0  0  0
    0.8578   -2.6401    0.0000 C   0  0  0  0  0  0  0  0  0  0  0  0
   -1.0323    0.7500    0.0000 N   0  0  0  0  0  0  0  0  0  0  0  0
   -5.3006   -0.5823    0.0000 N   0  0  0  0  0  0  0  0  0  0  0  0
   -6.1511    4.7875    0.0000 N   0  0  0  0  0  0  0  0  0  0  0  0
   -0.7813    5.6380    0.0000 N   0  0  0  0  0  0  0  0  0  0  0  0
  1  2  2  0
  2  3  1  0
  3  4  2  0
  4  5  1  0
  5  6  1  0
  6  7  2  0
  7  8  1  0
  7  9  1  0
  9 10  1  0
 10 11  2  0
  9 12  2  0
 12 13  1  0
 13 14  1  0
 14 15  2  0
 15 16  1  0
 15 17  1  0
 17 18  1  0
 18 19  1  0
 19 20  1  0
 20 21  2  0
 20 22  1  0
 17 23  2  0
 23 24  1  0
 24 25  1  0
 25 26  2  0
 26 27  1  0
 27 28  1  0
 28 29  1  0
 29 30  2  0
 29 31  1  0
 26 32  1  0
 32 33  1  0
 32 34  2  0
 34 35  1  0
 35 36  1  0
 36 37  2  0
 37 38  1  0
 36 39  1  0
 34 40  1  0
 23 41  1  0
 12 42  1  0
 37  3  1  0
 39  4  1  0
 42  6  1  0
 41 14  1  0
 40 25  1  0
M  CHG  2  22  -1  31  -1
M  END
