
     RDKit          2D

 75 77  0  0  0  0  0  0  0  0999 V2000
   42.1120   21.1405    0.0000 R   0  0  0  0  0  0  0  0  0  0  0  0
   40.6854   20.6769    0.0000 C   0  0  0  0  0  0  0  0  0  0  0  0
   39.5707   21.6806    0.0000 C   0  0  0  0  0  0  0  0  0  0  0  0
   39.8826   23.1478    0.0000 C   0  0  0  0  0  0  0  0  0  0  0  0
   38.1441   21.2171    0.0000 C   0  0  0  0  0  0  0  0  0  0  0  0
   37.8322   19.7499    0.0000 C   0  0  0  0  0  0  0  0  0  0  0  0
   36.4057   19.2864    0.0000 C   0  0  0  0  0  0  0  0  0  0  0  0
   36.0938   17.8191    0.0000 C   0  0  0  0  0  0  0  0  0  0  0  0
   37.2085   16.8154    0.0000 C   0  0  0  0  0  0  0  0  0  0  0  0
   34.6672   17.3556    0.0000 C   0  0  0  0  0  0  0  0  0  0  0  0
   33.5525   18.3593    0.0000 C   0  0  0  0  0  0  0  0  0  0  0  0
   32.1259   17.8958    0.0000 C   0  0  0  0  0  0  0  0  0  0  0  0
   31.0112   18.8995    0.0000 C   0  0  0  0  0  0  0  0  0  0  0  0
   31.3231   20.3667    0.0000 C   0  0  0  0  0  0  0  0  0  0  0  0
   29.5846   18.4359    0.0000 C   0  0  0  0  0  0  0  0  0  0  0  0
   29.2727   16.9687    0.0000 C   0  0  0  0  0  0  0  0  0  0  0  0
   27.8462   16.5052    0.0000 C   0  0  0  0  0  0  0  0  0  0  0  0
   27.5343   15.0380    0.0000 C   0  0  0  0  0  0  0  0  0  0  0  0
   28.6490   14.0343    0.0000 C   0  0  0  0  0  0  0  0  0  0  0  0
   26.1077   14.5745    0.0000 C   0  0  0  0  0  0  0  0  0  0  0  0
   24.9930   15.5782    0.0000 C   0  0  0  0  0  0  0  0  0  0  0  0
   23.5664   15.1146    0.0000 C   0  0  0  0  0  0  0  0  0  0  0  0
   22.4517   16.1183    0.0000 C   0  0  0  0  0  0  0  0  0  0  0  0
   22.7636   17.5855    0.0000 C   0  0  0  0  0  0  0  0  0  0  0  0
   21.0251   15.6548    0.0000 C   0  0  0  0  0  0  0  0  0  0  0  0
   20.7132   14.1876    0.0000 C   0  0  0  0  0  0  0  0  0  0  0  0
   19.2866   13.7240    0.0000 C   0  0  0  0  0  0  0  0  0  0  0  0
   18.9748   12.2568    0.0000 S   0  0  0  0  0  0  0  0  0  0  0  0
   17.5482   11.7933    0.0000 C   0  0  0  0  0  0  0  0  0  0  0  0
   17.2363   10.3261    0.0000 C   0  0  0  0  0  0  0  0  0  0  0  0
   15.8097    9.8626    0.0000 N   0  0  0  0  0  0  0  0  0  0  0  0
   15.4979    8.3953    0.0000 C   0  0  0  0  0  0  0  0  0  0  0  0
   16.6126    7.3916    0.0000 O   0  0  0  0  0  0  0  0  0  0  0  0
   14.0713    7.9318    0.0000 C   0  0  0  0  0  0  0  0  0  0  0  0
   13.7594    6.4646    0.0000 C   0  0  0  0  0  0  0  0  0  0  0  0
   12.3328    6.0011    0.0000 N   0  0  0  0  0  0  0  0  0  0  0  0
   12.0210    4.5338    0.0000 C   0  0  0  0  0  0  0  0  0  0  0  0
   13.1357    3.5301    0.0000 O   0  0  0  0  0  0  0  0  0  0  0  0
   10.5944    4.0703    0.0000 C   0  0  0  0  0  0  0  0  0  0  0  0
    9.4797    5.0740    0.0000 O   0  0  0  0  0  0  0  0  0  0  0  0
   10.2825    2.6031    0.0000 C   0  0  0  0  0  0  0  0  0  0  0  0
   11.7497    2.2912    0.0000 C   0  0  0  0  0  0  0  0  0  0  0  0
    8.8153    2.9150    0.0000 C   0  0  0  0  0  0  0  0  0  0  0  0
    9.9707    1.1359    0.0000 C   0  0  0  0  0  0  0  0  0  0  0  0
   11.0854    0.1322    0.0000 O   0  0  0  0  0  0  0  0  0  0  0  0
   10.7735   -1.3350    0.0000 P   0  0  0  0  0  0  0  0  0  0  0  0
   12.2407   -1.6469    0.0000 O   0  0  0  0  0  0  0  0  0  0  0  0
    9.3063   -1.0232    0.0000 O   0  0  0  0  0  1  0  0  0  0  0  0
   10.4616   -2.8023    0.0000 O   0  0  0  0  0  0  0  0  0  0  0  0
    9.0350   -3.2658    0.0000 P   0  0  0  0  0  0  0  0  0  0  0  0
    8.5715   -1.8392    0.0000 O   0  0  0  0  0  0  0  0  0  0  0  0
    9.4986   -4.6924    0.0000 O   0  0  0  0  0  1  0  0  0  0  0  0
    7.6085   -3.7293    0.0000 O   0  0  0  0  0  0  0  0  0  0  0  0
    6.4937   -2.7256    0.0000 C   0  0  0  0  0  0  0  0  0  0  0  0
    5.0672   -3.1891    0.0000 C   0  0  0  0  0  0  0  0  0  0  0  0
    3.8536   -2.3075    0.0000 O   0  0  0  0  0  0  0  0  0  0  0  0
    2.6401   -3.1891    0.0000 C   0  0  0  0  0  0  0  0  0  0  0  0
    1.2135   -2.7256    0.0000 N   0  0  0  0  0  0  0  0  0  0  0  0
   -0.0000   -3.6073    0.0000 C   0  0  0  0  0  0  0  0  0  0  0  0
   -1.2135   -2.7256    0.0000 N   0  0  0  0  0  0  0  0  0  0  0  0
   -0.7500   -1.2990    0.0000 C   0  0  0  0  0  0  0  0  0  0  0  0
    0.7500   -1.2990    0.0000 C   0  0  0  0  0  0  0  0  0  0  0  0
    1.5000    0.0000    0.0000 N   0  0  0  0  0  0  0  0  0  0  0  0
    0.7500    1.2990    0.0000 C   0  0  0  0  0  0  0  0  0  0  0  0
   -0.7500    1.2990    0.0000 N   0  0  0  0  0  0  0  0  0  0  0  0
   -1.5000    0.0000    0.0000 C   0  0  0  0  0  0  0  0  0  0  0  0
   -3.0000    0.0000    0.0000 N   0  0  0  0  0  0  0  0  0  0  0  0
    3.1036   -4.6157    0.0000 C   0  0  0  0  0  0  0  0  0  0  0  0
    2.2220   -5.8293    0.0000 O   0  0  0  0  0  0  0  0  0  0  0  0
    4.6036   -4.6157    0.0000 C   0  0  0  0  0  0  0  0  0  0  0  0
    5.4853   -5.8293    0.0000 O   0  0  0  0  0  0  0  0  0  0  0  0
    4.8752   -7.1996    0.0000 P   0  0  0  0  0  0  0  0  0  0  0  0
    6.2455   -7.8097    0.0000 O   0  0  0  0  0  0  0  0  0  0  0  0
    3.5049   -6.5895    0.0000 O   0  0  0  0  0  1  0  0  0  0  0  0
    4.2651   -8.5699    0.0000 O   0  0  0  0  0  1  0  0  0  0  0  0
  1  2  1  0
  2  3  1  0
  3  4  1  1
  3  5  1  0
  5  6  1  0
  6  7  1  0
  7  8  1  0
  8  9  1  6
  8 10  1  0
 10 11  1  0
 11 12  1  0
 12 13  1  0
 13 14  1  1
 13 15  1  0
 15 16  1  0
 16 17  1  0
 17 18  1  0
 18 19  1  6
 18 20  1  0
 20 21  1  0
 21 22  1  0
 22 23  1  0
 23 24  1  1
 23 25  1  0
 25 26  1  0
 26 27  1  0
 27 28  1  0
 28 29  1  0
 29 30  1  0
 30 31  1  0
 31 32  1  0
 32 33  2  0
 32 34  1  0
 34 35  1  0
 35 36  1  0
 36 37  1  0
 37 38  2  0
 37 39  1  0
 39 40  1  1
 39 41  1  0
 41 42  1  0
 41 43  1  0
 41 44  1  0
 44 45  1  0
 45 46  1  0
 46 47  2  0
 46 48  1  0
 46 49  1  0
 49 50  1  0
 50 51  2  0
 50 52  1  0
 50 53  1  0
 53 54  1  0
 55 54  1  6
 55 56  1  0
 56 57  1  0
 57 58  1  6
 58 59  1  0
 59 60  2  0
 60 61  1  0
 61 62  2  0
 62 63  1  0
 63 64  2  0
 64 65  1  0
 65 66  2  0
 66 67  1  0
 57 68  1  0
 68 69  1  1
 68 70  1  0
 70 71  1  1
 71 72  1  0
 72 73  2  0
 72 74  1  0
 72 75  1  0
 70 55  1  0
 62 58  1  0
 66 61  1  0
M  CHG  4  48  -1  52  -1  74  -1  75  -1
M  END
