
     RDKit          2D

 33 35  0  0  0  0  0  0  0  0999 V2000
   14.2504    2.5264    0.0000 C   0  0  0  0  0  0  0  0  0  0  0  0
   13.9385    1.0592    0.0000 C   0  0  0  0  0  0  0  0  0  0  0  0
   15.0533    0.0555    0.0000 O   0  0  0  0  0  0  0  0  0  0  0  0
   12.5120    0.5957    0.0000 C   0  0  0  0  0  0  0  0  0  0  0  0
   12.2001   -0.8715    0.0000 N   0  0  0  0  0  0  0  0  0  0  0  0
   10.7735   -1.3350    0.0000 C   0  0  0  0  0  0  0  0  0  0  0  0
    9.6588   -0.3314    0.0000 O   0  0  0  0  0  0  0  0  0  0  0  0
   10.4616   -2.8023    0.0000 O   0  0  0  0  0  0  0  0  0  0  0  0
    9.0350   -3.2658    0.0000 P   0  0  0  0  0  0  0  0  0  0  0  0
    8.5715   -1.8392    0.0000 O   0  0  0  0  0  0  0  0  0  0  0  0
    9.4986   -4.6924    0.0000 O   0  0  0  0  0  1  0  0  0  0  0  0
    7.6085   -3.7293    0.0000 O   0  0  0  0  0  0  0  0  0  0  0  0
    6.4937   -2.7256    0.0000 C   0  0  0  0  0  0  0  0  0  0  0  0
    5.0672   -3.1891    0.0000 C   0  0  0  0  0  0  0  0  0  0  0  0
    3.8536   -2.3075    0.0000 O   0  0  0  0  0  0  0  0  0  0  0  0
    2.6401   -3.1891    0.0000 C   0  0  0  0  0  0  0  0  0  0  0  0
    1.2135   -2.7256    0.0000 N   0  0  0  0  0  0  0  0  0  0  0  0
   -0.0000   -3.6073    0.0000 C   0  0  0  0  0  0  0  0  0  0  0  0
   -1.2135   -2.7256    0.0000 N   0  0  0  0  0  0  0  0  0  0  0  0
   -0.7500   -1.2990    0.0000 C   0  0  0  0  0  0  0  0  0  0  0  0
    0.7500   -1.2990    0.0000 C   0  0  0  0  0  0  0  0  0  0  0  0
    1.5000    0.0000    0.0000 N   0  0  0  0  0  0  0  0  0  0  0  0
    0.7500    1.2990    0.0000 C   0  0  0  0  0  0  0  0  0  0  0  0
   -0.7500    1.2990    0.0000 N   0  0  0  0  0  0  0  0  0  0  0  0
   -1.5000    0.0000    0.0000 C   0  0  0  0  0  0  0  0  0  0  0  0
   -3.0000    0.0000    0.0000 N   0  0  0  0  0  0  0  0  0  0  0  0
    3.1036   -4.6157    0.0000 C   0  0  0  0  0  0  0  0  0  0  0  0
    2.2220   -5.8293    0.0000 O   0  0  0  0  0  0  0  0  0  0  0  0
    4.6036   -4.6157    0.0000 C   0  0  0  0  0  0  0  0  0  0  0  0
    5.4853   -5.8293    0.0000 O   0  0  0  0  0  0  0  0  0  0  0  0
   11.3972    1.5994    0.0000 C   0  0  0  0  0  0  0  0  0  0  0  0
    9.9707    1.1359    0.0000 O   0  0  0  0  0  0  0  0  0  0  0  0
   11.7091    3.0666    0.0000 O   0  0  0  0  0  1  0  0  0  0  0  0
  2  1  1  1
  2  3  1  0
  2  4  1  0
  4  5  1  6
  5  6  1  0
  6  7  2  0
  6  8  1  0
  8  9  1  0
  9 10  2  0
  9 11  1  0
  9 12  1  0
 12 13  1  0
 14 13  1  6
 14 15  1  0
 15 16  1  0
 16 17  1  6
 17 18  1  0
 18 19  2  0
 19 20  1  0
 20 21  2  0
 21 22  1  0
 22 23  2  0
 23 24  1  0
 24 25  2  0
 25 26  1  0
 16 27  1  0
 27 28  1  1
 27 29  1  0
 29 30  1  1
  4 31  1  0
 31 32  2  0
 31 33  1  0
 29 14  1  0
 21 17  1  0
 25 20  1  0
M  CHG  2  11  -1  33  -1
M  END
