
     RDKit          2D

 41 43  0  0  0  0  0  0  0  0999 V2000
    1.5000    0.0000    0.0000 C   0  0  0  0  0  0  0  0  0  0  0  0
    3.0000    0.0000    0.0000 C   0  0  0  0  0  0  0  0  0  0  0  0
    3.7500    1.2990    0.0000 O   0  0  0  0  0  0  0  0  0  0  0  0
    3.7500   -1.2990    0.0000 C   0  0  0  0  0  0  0  0  0  0  0  0
    3.0000   -2.5981    0.0000 O   0  0  0  0  0  0  0  0  0  0  0  0
    5.2500   -1.2990    0.0000 C   0  0  0  0  0  0  0  0  0  0  0  0
    6.0000   -2.5981    0.0000 O   0  0  0  0  0  0  0  0  0  0  0  0
    0.7500   -1.2990    0.0000 O   0  0  0  0  0  0  0  0  0  0  0  0
   -0.7500   -1.2990    0.0000 C   0  0  0  0  0  0  0  0  0  0  0  0
   -2.1595   -1.8121    0.0000 O   0  0  0  0  0  0  0  0  0  0  0  0
   -3.3086   -0.8479    0.0000 P   0  0  0  0  0  0  0  0  0  0  0  0
   -4.2728   -1.9970    0.0000 O   0  0  0  0  0  0  0  0  0  0  0  0
   -2.3444    0.3012    0.0000 O   0  0  0  0  0  1  0  0  0  0  0  0
   -4.4577    0.1163    0.0000 O   0  0  0  0  0  0  0  0  0  0  0  0
   -5.8672   -0.3967    0.0000 C   0  0  0  0  0  0  0  0  0  0  0  0
   -7.0163    0.5674    0.0000 C   0  0  0  0  0  0  0  0  0  0  0  0
   -8.4717    0.2046    0.0000 O   0  0  0  0  0  0  0  0  0  0  0  0
   -9.2666    1.4766    0.0000 C   0  0  0  0  0  0  0  0  0  0  0  0
  -10.7629    1.5813    0.0000 N   0  0  0  0  0  0  0  0  0  0  0  0
  -11.4205    2.9295    0.0000 C   0  0  0  0  0  0  0  0  0  0  0  0
  -12.9168    3.0341    0.0000 C   0  0  0  0  0  0  0  0  0  0  0  0
  -13.7556    1.7905    0.0000 C   0  0  0  0  0  0  0  0  0  0  0  0
  -15.2520    1.8952    0.0000 N   0  0  0  0  0  0  0  0  0  0  0  0
  -13.0981    0.4423    0.0000 N   0  0  0  0  0  0  0  0  0  0  0  0
  -11.6017    0.3377    0.0000 C   0  0  0  0  0  0  0  0  0  0  0  0
  -10.9442   -1.0105    0.0000 O   0  0  0  0  0  0  0  0  0  0  0  0
   -8.3024    2.6257    0.0000 C   0  0  0  0  0  0  0  0  0  0  0  0
   -8.6653    4.0811    0.0000 O   0  0  0  0  0  0  0  0  0  0  0  0
   -6.9116    2.0638    0.0000 C   0  0  0  0  0  0  0  0  0  0  0  0
   -5.6396    2.8587    0.0000 O   0  0  0  0  0  0  0  0  0  0  0  0
   -0.4895   -2.7762    0.0000 C   0  0  0  0  0  0  0  0  0  0  0  0
    0.9200   -3.2893    0.0000 O   0  0  0  0  0  0  0  0  0  0  0  0
   -1.6386   -3.7404    0.0000 O   0  0  0  0  0  1  0  0  0  0  0  0
   -1.5000    0.0000    0.0000 C   0  0  0  0  0  0  0  0  0  0  0  0
   -0.7500    1.2990    0.0000 C   0  0  0  0  0  0  0  0  0  0  0  0
   -1.5000    2.5981    0.0000 O   0  0  0  0  0  0  0  0  0  0  0  0
    0.7500    1.2990    0.0000 C   0  0  0  0  0  0  0  0  0  0  0  0
    1.5000    2.5981    0.0000 N   0  0  0  0  0  0  0  0  0  0  0  0
    0.7500    3.8971    0.0000 C   0  0  0  0  0  0  0  0  0  0  0  0
    1.5000    5.1962    0.0000 C   0  0  0  0  0  0  0  0  0  0  0  0
   -0.7500    3.8971    0.0000 O   0  0  0  0  0  0  0  0  0  0  0  0
  1  2  1  0
  2  3  1  6
  2  4  1  0
  4  5  1  1
  4  6  1  0
  6  7  1  0
  1  8  1  6
  8  9  1  0
  9 10  1  1
 10 11  1  0
 11 12  2  0
 11 13  1  0
 11 14  1  0
 14 15  1  0
 16 15  1  1
 16 17  1  0
 17 18  1  0
 18 19  1  1
 19 20  1  0
 20 21  2  0
 21 22  1  0
 22 23  1  0
 22 24  2  0
 24 25  1  0
 25 26  2  0
 18 27  1  0
 27 28  1  6
 27 29  1  0
 29 30  1  6
  9 31  1  0
 31 32  2  0
 31 33  1  0
  9 34  1  0
 34 35  1  0
 35 36  1  6
 35 37  1  0
 37 38  1  1
 38 39  1  0
 39 40  1  0
 39 41  2  0
 37  1  1  0
 29 16  1  0
 25 19  1  0
M  CHG  2  13  -1  33  -1
M  END
