
     RDKit          2D

 39 42  0  0  0  0  0  0  0  0999 V2000
   -9.9362   -9.3014    0.0000 C   0  0  0  0  0  0  0  0  0  0  0  0
  -11.2352   -8.5514    0.0000 C   0  0  0  0  0  0  0  0  0  0  0  0
  -12.5343   -9.3014    0.0000 O   0  0  0  0  0  0  0  0  0  0  0  0
  -11.2352   -7.0514    0.0000 O   0  0  0  0  0  0  0  0  0  0  0  0
  -12.5343   -6.3014    0.0000 C   0  0  0  0  0  0  0  0  0  0  0  0
  -12.6911   -4.8097    0.0000 C   0  0  0  0  0  0  0  0  0  0  0  0
  -11.5764   -3.8060    0.0000 C   0  0  0  0  0  0  0  0  0  0  0  0
  -11.8882   -2.3387    0.0000 O   0  0  0  0  0  0  0  0  0  0  0  0
  -10.7735   -1.3350    0.0000 P   0  0  0  0  0  0  0  0  0  0  0  0
  -11.7772   -0.2203    0.0000 O   0  0  0  0  0  0  0  0  0  0  0  0
   -9.7698   -2.4498    0.0000 O   0  0  0  0  0  1  0  0  0  0  0  0
   -9.6588   -0.3314    0.0000 O   0  0  0  0  0  0  0  0  0  0  0  0
   -8.2322   -0.7949    0.0000 P   0  0  0  0  0  0  0  0  0  0  0  0
   -8.6957   -2.2215    0.0000 O   0  0  0  0  0  0  0  0  0  0  0  0
   -7.7687    0.6317    0.0000 O   0  0  0  0  0  1  0  0  0  0  0  0
   -6.8056   -1.2584    0.0000 O   0  0  0  0  0  0  0  0  0  0  0  0
   -6.4937   -2.7256    0.0000 C   0  0  0  0  0  0  0  0  0  0  0  0
   -5.0672   -3.1891    0.0000 C   0  0  0  0  0  0  0  0  0  0  0  0
   -3.8536   -2.3075    0.0000 O   0  0  0  0  0  0  0  0  0  0  0  0
   -2.6401   -3.1891    0.0000 C   0  0  0  0  0  0  0  0  0  0  0  0
   -1.2135   -2.7256    0.0000 N   0  0  0  0  0  0  0  0  0  0  0  0
   -0.0000   -3.6073    0.0000 C   0  0  0  0  0  0  0  0  0  0  0  0
    1.2135   -2.7256    0.0000 N   0  0  0  0  0  0  0  0  0  0  0  0
    0.7500   -1.2990    0.0000 C   0  0  0  0  0  0  0  0  0  0  0  0
    1.5000    0.0000    0.0000 C   0  0  0  0  0  0  0  0  0  0  0  0
    3.0000    0.0000    0.0000 N   0  0  0  0  0  0  0  0  0  0  0  0
    0.7500    1.2990    0.0000 N   0  0  0  0  0  0  0  0  0  0  0  0
   -0.7500    1.2990    0.0000 C   0  0  0  0  0  0  0  0  0  0  0  0
   -1.5000    0.0000    0.0000 N   0  0  0  0  0  0  0  0  0  0  0  0
   -0.7500   -1.2990    0.0000 C   0  0  0  0  0  0  0  0  0  0  0  0
   -3.1036   -4.6157    0.0000 C   0  0  0  0  0  0  0  0  0  0  0  0
   -2.2220   -5.8293    0.0000 O   0  0  0  0  0  0  0  0  0  0  0  0
   -4.6036   -4.6157    0.0000 C   0  0  0  0  0  0  0  0  0  0  0  0
   -5.4853   -5.8293    0.0000 O   0  0  0  0  0  0  0  0  0  0  0  0
  -14.1583   -4.4978    0.0000 O   0  0  0  0  0  0  0  0  0  0  0  0
  -14.9083   -5.7968    0.0000 C   0  0  0  0  0  0  0  0  0  0  0  0
  -16.4001   -5.9536    0.0000 O   0  0  0  0  0  0  0  0  0  0  0  0
  -13.9046   -6.9115    0.0000 C   0  0  0  0  0  0  0  0  0  0  0  0
  -14.2165   -8.3788    0.0000 O   0  0  0  0  0  0  0  0  0  0  0  0
  1  2  1  0
  2  3  2  0
  2  4  1  0
  5  4  1  1
  5  6  1  0
  6  7  1  6
  7  8  1  0
  8  9  1  0
  9 10  2  0
  9 11  1  0
  9 12  1  0
 12 13  1  0
 13 14  2  0
 13 15  1  0
 13 16  1  0
 16 17  1  0
 18 17  1  1
 18 19  1  0
 19 20  1  0
 20 21  1  1
 21 22  1  0
 22 23  2  0
 23 24  1  0
 24 25  2  0
 25 26  1  0
 25 27  1  0
 27 28  2  0
 28 29  1  0
 29 30  2  0
 20 31  1  0
 31 32  1  6
 31 33  1  0
 33 34  1  6
  6 35  1  0
 35 36  1  0
 36 37  1  0
 36 38  1  0
 38 39  1  1
 38  5  1  0
 33 18  1  0
 30 21  1  0
 30 24  1  0
M  CHG  2  11  -1  15  -1
M  END
