
     RDKit          2D

 33 35  0  0  0  0  0  0  0  0999 V2000
   -4.9344   10.2825    0.0000 C   0  0  0  0  0  0  0  0  0  0  0  0
   -3.4672    9.9707    0.0000 C   0  0  0  0  0  0  0  0  0  0  0  0
   -2.4635   11.0854    0.0000 O   0  0  0  0  0  0  0  0  0  0  0  0
   -0.9963   10.7735    0.0000 P   0  0  0  0  0  0  0  0  0  0  0  0
   -0.6844   12.2407    0.0000 O   0  0  0  0  0  0  0  0  0  0  0  0
   -1.3081    9.3063    0.0000 O   0  0  0  0  0  1  0  0  0  0  0  0
    0.4709   10.4616    0.0000 O   0  0  0  0  0  0  0  0  0  0  0  0
    0.9345    9.0350    0.0000 P   0  0  0  0  0  0  0  0  0  0  0  0
   -0.4921    8.5715    0.0000 O   0  0  0  0  0  0  0  0  0  0  0  0
    2.3611    9.4986    0.0000 O   0  0  0  0  0  1  0  0  0  0  0  0
    1.3980    7.6085    0.0000 O   0  0  0  0  0  0  0  0  0  0  0  0
    0.3943    6.4937    0.0000 C   0  0  0  0  0  0  0  0  0  0  0  0
    0.8578    5.0672    0.0000 C   0  0  0  0  0  0  0  0  0  0  0  0
   -0.0239    3.8536    0.0000 O   0  0  0  0  0  0  0  0  0  0  0  0
    0.8578    2.6401    0.0000 C   0  0  0  0  0  0  0  0  0  0  0  0
    0.3943    1.2135    0.0000 N   0  0  0  0  0  0  0  0  0  0  0  0
    1.2760    0.0000    0.0000 C   0  0  0  0  0  0  0  0  0  0  0  0
    0.3943   -1.2135    0.0000 N   0  0  0  0  0  0  0  0  0  0  0  0
   -1.0323   -0.7500    0.0000 C   0  0  0  0  0  0  0  0  0  0  0  0
   -1.0323    0.7500    0.0000 C   0  0  0  0  0  0  0  0  0  0  0  0
   -2.3313    1.5000    0.0000 N   0  0  0  0  0  0  0  0  0  0  0  0
   -3.6304    0.7500    0.0000 C   0  0  0  0  0  0  0  0  0  0  0  0
   -4.9294    1.5000    0.0000 N   0  0  0  0  0  0  0  0  0  0  0  0
   -3.6304   -0.7500    0.0000 N   0  0  0  0  0  0  0  0  0  0  0  0
   -2.3313   -1.5000    0.0000 C   0  0  0  0  0  0  0  0  0  0  0  0
   -2.3313   -3.0000    0.0000 O   0  0  0  0  0  0  0  0  0  0  0  0
    2.2844    3.1036    0.0000 C   0  0  0  0  0  0  0  0  0  0  0  0
    3.4979    2.2220    0.0000 O   0  0  0  0  0  0  0  0  0  0  0  0
    2.2844    4.6036    0.0000 C   0  0  0  0  0  0  0  0  0  0  0  0
    3.4979    5.4853    0.0000 O   0  0  0  0  0  0  0  0  0  0  0  0
   -3.0037    8.5441    0.0000 C   0  0  0  0  0  0  0  0  0  0  0  0
   -1.5364    8.2322    0.0000 O   0  0  0  0  0  0  0  0  0  0  0  0
   -4.0074    7.4293    0.0000 O   0  0  0  0  0  1  0  0  0  0  0  0
  2  1  1  6
  2  3  1  0
  3  4  1  0
  4  5  2  0
  4  6  1  0
  4  7  1  0
  7  8  1  0
  8  9  2  0
  8 10  1  0
  8 11  1  0
 11 12  1  0
 13 12  1  6
 13 14  1  0
 14 15  1  0
 15 16  1  6
 16 17  1  0
 17 18  2  0
 18 19  1  0
 19 20  2  0
 20 21  1  0
 21 22  2  0
 22 23  1  0
 22 24  1  0
 24 25  1  0
 25 26  2  0
 15 27  1  0
 27 28  1  1
 27 29  1  0
 29 30  1  1
  2 31  1  0
 31 32  2  0
 31 33  1  0
 29 13  1  0
 20 16  1  0
 25 19  1  0
M  CHG  3   6  -1  10  -1  33  -1
M  END
