
     RDKit          2D

 24 23  0  0  0  0  0  0  0  0999 V2000
    0.0000    0.0000    0.0000 C   0  0  0  0  0  0  0  0  0  0  0  0
    1.2990    0.7500    0.0000 C   0  0  0  0  0  0  0  0  0  0  0  0
    2.5981   -0.0000    0.0000 C   0  0  0  0  0  0  0  0  0  0  0  0
    3.8971    0.7500    0.0000 C   0  0  0  0  0  0  0  0  0  0  0  0
    5.1962   -0.0000    0.0000 C   0  0  0  0  0  0  0  0  0  0  0  0
    6.4952    0.7500    0.0000 C   0  0  0  0  0  0  0  0  0  0  0  0
    7.7942   -0.0000    0.0000 C   0  0  0  0  0  0  0  0  0  0  0  0
    9.0933    0.7500    0.0000 C   0  0  0  0  0  0  0  0  0  0  0  0
   10.3923   -0.0000    0.0000 C   0  0  0  0  0  0  0  0  0  0  0  0
   11.6913    0.7500    0.0000 C   0  0  0  0  0  0  0  0  0  0  0  0
   12.9904   -0.0000    0.0000 C   0  0  0  0  0  0  0  0  0  0  0  0
   12.9904   -1.5000    0.0000 C   0  0  0  0  0  0  0  0  0  0  0  0
   11.6913   -2.2500    0.0000 O   0  0  0  0  0  0  0  0  0  0  0  0
   14.2894   -2.2500    0.0000 O   0  0  0  0  0  1  0  0  0  0  0  0
   14.2894    0.7500    0.0000 C   0  0  0  0  0  0  0  0  0  0  0  0
   15.0394   -0.5490    0.0000 O   0  0  0  0  0  0  0  0  0  0  0  0
   15.5885    1.5000    0.0000 C   0  0  0  0  0  0  0  0  0  0  0  0
   15.5885    3.0000    0.0000 C   0  0  0  0  0  0  0  0  0  0  0  0
   16.8875    3.7500    0.0000 C   0  0  0  0  0  0  0  0  0  0  0  0
   18.1865    3.0000    0.0000 O   0  0  0  0  0  0  0  0  0  0  0  0
   16.8875    5.2500    0.0000 O   0  0  0  0  0  1  0  0  0  0  0  0
   13.5394    2.0490    0.0000 C   0  0  0  0  0  0  0  0  0  0  0  0
   12.0394    2.0490    0.0000 O   0  0  0  0  0  0  0  0  0  0  0  0
   14.2894    3.3481    0.0000 O   0  0  0  0  0  1  0  0  0  0  0  0
  1  2  1  0
  2  3  1  0
  3  4  1  0
  4  5  1  0
  5  6  1  0
  6  7  1  0
  7  8  1  0
  8  9  1  0
  9 10  1  0
 11 10  1  1
 11 12  1  0
 12 13  2  0
 12 14  1  0
 11 15  1  0
 15 16  1  1
 15 17  1  0
 17 18  1  0
 18 19  1  0
 19 20  2  0
 19 21  1  0
 15 22  1  0
 22 23  2  0
 22 24  1  0
M  CHG  3  14  -1  21  -1  24  -1
M  END
