
     RDKit          2D

 57 59  0  0  0  0  0  0  0  0999 V2000
   25.9286   19.9798    0.0000 C   0  0  0  0  0  0  0  0  0  0  0  0
   24.5020   19.5163    0.0000 C   0  0  0  0  0  0  0  0  0  0  0  0
   24.1901   18.0491    0.0000 C   0  0  0  0  0  0  0  0  0  0  0  0
   22.7636   17.5855    0.0000 C   0  0  0  0  0  0  0  0  0  0  0  0
   22.4517   16.1183    0.0000 C   0  0  0  0  0  0  0  0  0  0  0  0
   21.0251   15.6548    0.0000 C   0  0  0  0  0  0  0  0  0  0  0  0
   20.7132   14.1876    0.0000 C   0  0  0  0  0  0  0  0  0  0  0  0
   19.2866   13.7240    0.0000 C   0  0  0  0  0  0  0  0  0  0  0  0
   18.1719   14.7277    0.0000 O   0  0  0  0  0  0  0  0  0  0  0  0
   18.9748   12.2568    0.0000 S   0  0  0  0  0  0  0  0  0  0  0  0
   17.5482   11.7933    0.0000 C   0  0  0  0  0  0  0  0  0  0  0  0
   17.2363   10.3261    0.0000 C   0  0  0  0  0  0  0  0  0  0  0  0
   15.8097    9.8626    0.0000 N   0  0  0  0  0  0  0  0  0  0  0  0
   15.4979    8.3953    0.0000 C   0  0  0  0  0  0  0  0  0  0  0  0
   16.6126    7.3916    0.0000 O   0  0  0  0  0  0  0  0  0  0  0  0
   14.0713    7.9318    0.0000 C   0  0  0  0  0  0  0  0  0  0  0  0
   13.7594    6.4646    0.0000 C   0  0  0  0  0  0  0  0  0  0  0  0
   12.3328    6.0011    0.0000 N   0  0  0  0  0  0  0  0  0  0  0  0
   12.0210    4.5338    0.0000 C   0  0  0  0  0  0  0  0  0  0  0  0
   13.1357    3.5301    0.0000 O   0  0  0  0  0  0  0  0  0  0  0  0
   10.5944    4.0703    0.0000 C   0  0  0  0  0  0  0  0  0  0  0  0
    9.4797    5.0740    0.0000 O   0  0  0  0  0  0  0  0  0  0  0  0
   10.2825    2.6031    0.0000 C   0  0  0  0  0  0  0  0  0  0  0  0
   11.7497    2.2912    0.0000 C   0  0  0  0  0  0  0  0  0  0  0  0
    8.8153    2.9150    0.0000 C   0  0  0  0  0  0  0  0  0  0  0  0
    9.9707    1.1359    0.0000 C   0  0  0  0  0  0  0  0  0  0  0  0
   11.0854    0.1322    0.0000 O   0  0  0  0  0  0  0  0  0  0  0  0
   10.7735   -1.3350    0.0000 P   0  0  0  0  0  0  0  0  0  0  0  0
   12.2407   -1.6469    0.0000 O   0  0  0  0  0  0  0  0  0  0  0  0
    9.3063   -1.0232    0.0000 O   0  0  0  0  0  1  0  0  0  0  0  0
   10.4616   -2.8023    0.0000 O   0  0  0  0  0  0  0  0  0  0  0  0
    9.0350   -3.2658    0.0000 P   0  0  0  0  0  0  0  0  0  0  0  0
    8.5715   -1.8392    0.0000 O   0  0  0  0  0  0  0  0  0  0  0  0
    9.4986   -4.6924    0.0000 O   0  0  0  0  0  1  0  0  0  0  0  0
    7.6085   -3.7293    0.0000 O   0  0  0  0  0  0  0  0  0  0  0  0
    6.4937   -2.7256    0.0000 C   0  0  0  0  0  0  0  0  0  0  0  0
    5.0672   -3.1891    0.0000 C   0  0  0  0  0  0  0  0  0  0  0  0
    3.8536   -2.3075    0.0000 O   0  0  0  0  0  0  0  0  0  0  0  0
    2.6401   -3.1891    0.0000 C   0  0  0  0  0  0  0  0  0  0  0  0
    1.2135   -2.7256    0.0000 N   0  0  0  0  0  0  0  0  0  0  0  0
   -0.0000   -3.6073    0.0000 C   0  0  0  0  0  0  0  0  0  0  0  0
   -1.2135   -2.7256    0.0000 N   0  0  0  0  0  0  0  0  0  0  0  0
   -0.7500   -1.2990    0.0000 C   0  0  0  0  0  0  0  0  0  0  0  0
    0.7500   -1.2990    0.0000 C   0  0  0  0  0  0  0  0  0  0  0  0
    1.5000    0.0000    0.0000 N   0  0  0  0  0  0  0  0  0  0  0  0
    0.7500    1.2990    0.0000 C   0  0  0  0  0  0  0  0  0  0  0  0
   -0.7500    1.2990    0.0000 N   0  0  0  0  0  0  0  0  0  0  0  0
   -1.5000    0.0000    0.0000 C   0  0  0  0  0  0  0  0  0  0  0  0
   -3.0000    0.0000    0.0000 N   0  0  0  0  0  0  0  0  0  0  0  0
    3.1036   -4.6157    0.0000 C   0  0  0  0  0  0  0  0  0  0  0  0
    2.2220   -5.8293    0.0000 O   0  0  0  0  0  0  0  0  0  0  0  0
    4.6036   -4.6157    0.0000 C   0  0  0  0  0  0  0  0  0  0  0  0
    5.4853   -5.8293    0.0000 O   0  0  0  0  0  0  0  0  0  0  0  0
    4.8752   -7.1996    0.0000 P   0  0  0  0  0  0  0  0  0  0  0  0
    6.2455   -7.8097    0.0000 O   0  0  0  0  0  0  0  0  0  0  0  0
    3.5049   -6.5895    0.0000 O   0  0  0  0  0  1  0  0  0  0  0  0
    4.2651   -8.5699    0.0000 O   0  0  0  0  0  1  0  0  0  0  0  0
  1  2  1  0
  2  3  1  0
  3  4  1  0
  4  5  1  0
  5  6  1  0
  6  7  1  0
  7  8  1  0
  8  9  2  0
  8 10  1  0
 10 11  1  0
 11 12  1  0
 12 13  1  0
 13 14  1  0
 14 15  2  0
 14 16  1  0
 16 17  1  0
 17 18  1  0
 18 19  1  0
 19 20  2  0
 19 21  1  0
 21 22  1  1
 21 23  1  0
 23 24  1  0
 23 25  1  0
 23 26  1  0
 26 27  1  0
 27 28  1  0
 28 29  2  0
 28 30  1  0
 28 31  1  0
 31 32  1  0
 32 33  2  0
 32 34  1  0
 32 35  1  0
 35 36  1  0
 37 36  1  6
 37 38  1  0
 38 39  1  0
 39 40  1  6
 40 41  1  0
 41 42  2  0
 42 43  1  0
 43 44  2  0
 44 45  1  0
 45 46  2  0
 46 47  1  0
 47 48  2  0
 48 49  1  0
 39 50  1  0
 50 51  1  1
 50 52  1  0
 52 53  1  1
 53 54  1  0
 54 55  2  0
 54 56  1  0
 54 57  1  0
 52 37  1  0
 44 40  1  0
 48 43  1  0
M  CHG  4  30  -1  34  -1  56  -1  57  -1
M  END
