
     RDKit          2D

105108  0  0  0  0  0  0  0  0999 V2000
   -6.3648   -8.4868    0.0000 C   0  0  0  0  0  0  0  0  0  0  0  0
   -7.8321   -8.1749    0.0000 C   0  0  0  0  0  0  0  0  0  0  0  0
   -8.2956   -6.7484    0.0000 O   0  0  0  0  0  0  0  0  0  0  0  0
   -8.8358   -9.2897    0.0000 C   0  0  0  0  0  0  0  0  0  0  0  0
  -10.3030   -8.9778    0.0000 O   0  0  0  0  0  0  0  0  0  0  0  0
   -5.2501   -7.4831    0.0000 O   0  0  0  0  0  0  0  0  0  0  0  0
   -3.9511   -8.2331    0.0000 C   0  0  0  0  0  0  0  0  0  0  0  0
   -2.5808   -7.6230    0.0000 O   0  0  0  0  0  0  0  0  0  0  0  0
   -2.4240   -6.1312    0.0000 C   0  0  0  0  0  0  0  0  0  0  0  0
   -3.6375   -5.2496    0.0000 C   0  0  0  0  0  0  0  0  0  0  0  0
   -5.0078   -5.8597    0.0000 O   0  0  0  0  0  0  0  0  0  0  0  0
   -1.0537   -5.5211    0.0000 C   0  0  0  0  0  0  0  0  0  0  0  0
   -0.7418   -4.0539    0.0000 O   0  0  0  0  0  0  0  0  0  0  0  0
    0.7500   -3.8971    0.0000 C   0  0  0  0  0  0  0  0  0  0  0  0
    1.5000   -2.5981    0.0000 O   0  0  0  0  0  0  0  0  0  0  0  0
    0.7500   -1.2990    0.0000 C   0  0  0  0  0  0  0  0  0  0  0  0
    1.5000    0.0000    0.0000 C   0  0  0  0  0  0  0  0  0  0  0  0
    3.0000    0.0000    0.0000 O   0  0  0  0  0  0  0  0  0  0  0  0
    0.7500    1.2990    0.0000 C   0  0  0  0  0  0  0  0  0  0  0  0
    1.5000    2.5981    0.0000 O   0  0  0  0  0  0  0  0  0  0  0  0
   -0.7500    1.2990    0.0000 C   0  0  0  0  0  0  0  0  0  0  0  0
   -1.5000    2.5981    0.0000 O   0  0  0  0  0  0  0  0  0  0  0  0
   -3.0000    2.5981    0.0000 C   0  0  0  0  0  0  0  0  0  0  0  0
   -3.7500    3.8971    0.0000 C   0  0  0  0  0  0  0  0  0  0  0  0
   -3.0000    5.1962    0.0000 O   0  0  0  0  0  0  0  0  0  0  0  0
   -5.2500    3.8971    0.0000 C   0  0  0  0  0  0  0  0  0  0  0  0
   -6.0000    5.1962    0.0000 C   0  0  0  0  0  0  0  0  0  0  0  0
   -7.5000    5.1962    0.0000 O   0  0  0  0  0  0  0  0  0  0  0  0
   -6.0000    2.5981    0.0000 O   0  0  0  0  0  0  0  0  0  0  0  0
   -5.2500    1.2990    0.0000 C   0  0  0  0  0  0  0  0  0  0  0  0
   -6.0000   -0.0000    0.0000 O   0  0  0  0  0  0  0  0  0  0  0  0
   -7.5000   -0.0000    0.0000 P   0  0  0  0  0  0  0  0  0  0  0  0
   -7.5000    1.5000    0.0000 O   0  0  0  0  0  0  0  0  0  0  0  0
   -7.5000   -1.5000    0.0000 O   0  0  0  0  0  1  0  0  0  0  0  0
   -9.0000   -0.0000    0.0000 O   0  0  0  0  0  0  0  0  0  0  0  0
   -9.7500    1.2990    0.0000 P   0  0  0  0  0  0  0  0  0  0  0  0
  -11.0490    0.5490    0.0000 O   0  0  0  0  0  0  0  0  0  0  0  0
   -8.4510    2.0490    0.0000 O   0  0  0  0  0  1  0  0  0  0  0  0
  -10.5000    2.5981    0.0000 O   0  0  0  0  0  0  0  0  0  0  0  0
   -9.7500    3.8971    0.0000 C   0  0  0  0  0  0  0  0  0  0  0  0
  -10.5000    5.1962    0.0000 C   0  0  0  0  0  0  0  0  0  0  0  0
  -12.0000    5.1962    0.0000 C   0  0  0  0  0  0  0  0  0  0  0  0
  -12.7500    6.4952    0.0000 C   0  0  0  0  0  0  0  0  0  0  0  0
  -12.7500    3.8971    0.0000 C   0  0  0  0  0  0  0  0  0  0  0  0
  -14.2500    3.8971    0.0000 C   0  0  0  0  0  0  0  0  0  0  0  0
  -15.0000    2.5981    0.0000 C   0  0  0  0  0  0  0  0  0  0  0  0
  -16.5000    2.5981    0.0000 C   0  0  0  0  0  0  0  0  0  0  0  0
  -17.2500    1.2990    0.0000 C   0  0  0  0  0  0  0  0  0  0  0  0
  -17.2500    3.8971    0.0000 C   0  0  0  0  0  0  0  0  0  0  0  0
  -18.7500    3.8971    0.0000 C   0  0  0  0  0  0  0  0  0  0  0  0
  -19.5000    5.1962    0.0000 C   0  0  0  0  0  0  0  0  0  0  0  0
  -21.0000    5.1962    0.0000 C   0  0  0  0  0  0  0  0  0  0  0  0
  -21.7500    6.4952    0.0000 C   0  0  0  0  0  0  0  0  0  0  0  0
  -21.7500    3.8971    0.0000 C   0  0  0  0  0  0  0  0  0  0  0  0
  -23.2500    3.8971    0.0000 C   0  0  0  0  0  0  0  0  0  0  0  0
  -24.0000    2.5981    0.0000 C   0  0  0  0  0  0  0  0  0  0  0  0
  -25.5000    2.5981    0.0000 C   0  0  0  0  0  0  0  0  0  0  0  0
  -26.2500    1.2990    0.0000 C   0  0  0  0  0  0  0  0  0  0  0  0
  -26.2500    3.8971    0.0000 C   0  0  0  0  0  0  0  0  0  0  0  0
  -27.7500    3.8971    0.0000 C   0  0  0  0  0  0  0  0  0  0  0  0
  -28.5000    5.1962    0.0000 C   0  0  0  0  0  0  0  0  0  0  0  0
  -30.0000    5.1962    0.0000 C   0  0  0  0  0  0  0  0  0  0  0  0
  -30.7500    6.4952    0.0000 C   0  0  0  0  0  0  0  0  0  0  0  0
  -30.7500    3.8971    0.0000 C   0  0  0  0  0  0  0  0  0  0  0  0
  -32.2500    3.8971    0.0000 C   0  0  0  0  0  0  0  0  0  0  0  0
  -33.0000    2.5981    0.0000 C   0  0  0  0  0  0  0  0  0  0  0  0
  -34.5000    2.5981    0.0000 C   0  0  0  0  0  0  0  0  0  0  0  0
  -35.2500    1.2990    0.0000 C   0  0  0  0  0  0  0  0  0  0  0  0
  -35.2500    3.8971    0.0000 C   0  0  0  0  0  0  0  0  0  0  0  0
  -36.7500    3.8971    0.0000 C   0  0  0  0  0  0  0  0  0  0  0  0
  -37.5000    5.1962    0.0000 C   0  0  0  0  0  0  0  0  0  0  0  0
  -39.0000    5.1962    0.0000 C   0  0  0  0  0  0  0  0  0  0  0  0
  -39.7500    6.4952    0.0000 C   0  0  0  0  0  0  0  0  0  0  0  0
  -39.7500    3.8971    0.0000 C   0  0  0  0  0  0  0  0  0  0  0  0
  -41.2500    3.8971    0.0000 C   0  0  0  0  0  0  0  0  0  0  0  0
  -42.0000    2.5981    0.0000 C   0  0  0  0  0  0  0  0  0  0  0  0
  -43.5000    2.5981    0.0000 C   0  0  0  0  0  0  0  0  0  0  0  0
  -44.2500    1.2990    0.0000 C   0  0  0  0  0  0  0  0  0  0  0  0
  -44.2500    3.8971    0.0000 C   0  0  0  0  0  0  0  0  0  0  0  0
  -45.7500    3.8971    0.0000 C   0  0  0  0  0  0  0  0  0  0  0  0
  -46.5000    5.1962    0.0000 C   0  0  0  0  0  0  0  0  0  0  0  0
  -48.0000    5.1962    0.0000 C   0  0  0  0  0  0  0  0  0  0  0  0
  -48.7500    3.8971    0.0000 C   0  0  0  0  0  0  0  0  0  0  0  0
  -48.7500    6.4952    0.0000 C   0  0  0  0  0  0  0  0  0  0  0  0
  -48.0000    7.7942    0.0000 C   0  0  0  0  0  0  0  0  0  0  0  0
  -48.7500    9.0933    0.0000 C   0  0  0  0  0  0  0  0  0  0  0  0
  -48.0000   10.3923    0.0000 C   0  0  0  0  0  0  0  0  0  0  0  0
  -48.7500   11.6913    0.0000 C   0  0  0  0  0  0  0  0  0  0  0  0
  -46.5000   10.3923    0.0000 C   0  0  0  0  0  0  0  0  0  0  0  0
   -3.7500    1.2990    0.0000 C   0  0  0  0  0  0  0  0  0  0  0  0
   -3.0000   -0.0000    0.0000 N   0  0  0  0  0  0  0  0  0  0  0  0
   -3.7500   -1.2990    0.0000 C   0  0  0  0  0  0  0  0  0  0  0  0
   -3.0000   -2.5981    0.0000 C   0  0  0  0  0  0  0  0  0  0  0  0
   -5.2500   -1.2990    0.0000 O   0  0  0  0  0  0  0  0  0  0  0  0
   -1.5000    0.0000    0.0000 O   0  0  0  0  0  0  0  0  0  0  0  0
   -0.7500   -1.2990    0.0000 C   0  0  0  0  0  0  0  0  0  0  0  0
   -1.5000   -2.5981    0.0000 C   0  0  0  0  0  0  0  0  0  0  0  0
    1.3601   -5.2674    0.0000 C   0  0  0  0  0  0  0  0  0  0  0  0
    2.8273   -5.5793    0.0000 O   0  0  0  0  0  0  0  0  0  0  0  0
    0.2454   -6.2711    0.0000 C   0  0  0  0  0  0  0  0  0  0  0  0
    0.4022   -7.7629    0.0000 O   0  0  0  0  0  0  0  0  0  0  0  0
   -4.2629   -9.7003    0.0000 C   0  0  0  0  0  0  0  0  0  0  0  0
   -3.2593  -10.8151    0.0000 O   0  0  0  0  0  0  0  0  0  0  0  0
   -5.7547   -9.8571    0.0000 C   0  0  0  0  0  0  0  0  0  0  0  0
   -6.5047  -11.1562    0.0000 O   0  0  0  0  0  0  0  0  0  0  0  0
  1  2  1  0
  2  3  1  1
  2  4  1  0
  4  5  1  0
  1  6  1  6
  6  7  1  0
  7  8  1  1
  8  9  1  0
  9 10  1  6
 10 11  1  0
  9 12  1  0
 12 13  1  6
 13 14  1  0
 14 15  1  1
 16 15  1  1
 16 17  1  0
 17 18  1  6
 17 19  1  0
 19 20  1  6
 19 21  1  0
 21 22  1  1
 23 22  1  6
 23 24  1  0
 24 25  1  1
 24 26  1  0
 26 27  1  6
 27 28  1  0
 26 29  1  0
 29 30  1  0
 30 31  1  1
 31 32  1  0
 32 33  2  0
 32 34  1  0
 32 35  1  0
 35 36  1  0
 36 37  2  0
 36 38  1  0
 36 39  1  0
 39 40  1  0
 40 41  1  0
 41 42  2  0
 42 43  1  0
 42 44  1  0
 44 45  1  0
 45 46  1  0
 46 47  2  0
 47 48  1  0
 47 49  1  0
 49 50  1  0
 50 51  1  0
 51 52  2  0
 52 53  1  0
 52 54  1  0
 54 55  1  0
 55 56  1  0
 56 57  2  0
 57 58  1  0
 57 59  1  0
 59 60  1  0
 60 61  1  0
 61 62  2  0
 62 63  1  0
 62 64  1  0
 64 65  1  0
 65 66  1  0
 66 67  2  0
 67 68  1  0
 67 69  1  0
 69 70  1  0
 70 71  1  0
 71 72  2  0
 72 73  1  0
 72 74  1  0
 74 75  1  0
 75 76  1  0
 76 77  2  0
 77 78  1  0
 77 79  1  0
 79 80  1  0
 80 81  1  0
 81 82  2  0
 82 83  1  0
 82 84  1  0
 84 85  1  0
 85 86  1  0
 86 87  2  0
 87 88  1  0
 87 89  1  0
 30 90  1  0
 90 91  1  1
 91 92  1  0
 92 93  1  0
 92 94  2  0
 21 95  1  0
 95 96  1  0
 96 97  1  6
 14 98  1  0
 98 99  1  6
 98100  1  0
100101  1  1
  7102  1  0
102103  1  6
102104  1  0
104105  1  1
104  1  1  0
100 12  1  0
 96 16  1  0
 90 23  1  0
M  CHG  2  34  -1  38  -1
M  END
