
     RDKit          2D

 60 64  0  0  0  0  0  0  0  0999 V2000
    5.7760    0.0000    0.0000 O   0  0  0  0  0  0  0  0  0  0  0  0
    5.0260   -1.2990    0.0000 C   0  0  0  0  0  0  0  0  0  0  0  0
    5.7760   -2.5981    0.0000 O   0  0  0  0  0  1  0  0  0  0  0  0
    3.5260   -1.2990    0.0000 C   0  0  0  0  0  0  0  0  0  0  0  0
    2.7760    0.0000    0.0000 C   0  0  0  0  0  0  0  0  0  0  0  0
    1.2760    0.0000    0.0000 C   0  0  0  0  0  0  0  0  0  0  0  0
    0.3943    1.2135    0.0000 C   0  0  0  0  0  0  0  0  0  0  0  0
    0.7561    3.1293    0.0000 C   0  0  0  0  0  0  0  0  0  0  0  0
    0.2369    4.5365    0.0000 C   0  0  0  0  0  0  0  0  0  0  0  0
    0.7004    5.9631    0.0000 C   0  0  0  0  0  0  0  0  0  0  0  0
    2.1270    6.4267    0.0000 C   0  0  0  0  0  0  0  0  0  0  0  0
    3.2417    5.4230    0.0000 C   0  0  0  0  0  0  0  0  0  0  0  0
    4.6683    5.8865    0.0000 C   0  0  0  0  0  0  0  0  0  0  0  0
    4.9802    7.3537    0.0000 O   0  0  0  0  0  0  0  0  0  0  0  0
    5.7830    4.8828    0.0000 O   0  0  0  0  0  1  0  0  0  0  0  0
   -0.5131    6.8448    0.0000 C   0  0  0  0  0  0  0  0  0  0  0  0
   -0.5131    8.3448    0.0000 C   0  0  0  0  0  0  0  0  0  0  0  0
   -1.8121    9.0948    0.0000 C   0  0  0  0  0  0  0  0  0  0  0  0
   -3.1112    8.3448    0.0000 O   0  0  0  0  0  0  0  0  0  0  0  0
   -1.8121   10.5948    0.0000 O   0  0  0  0  0  1  0  0  0  0  0  0
   -2.1435    6.2660    0.0000 C   0  0  0  0  0  0  0  0  0  0  0  0
   -3.6424    6.3249    0.0000 C   0  0  0  0  0  0  0  0  0  0  0  0
   -5.0496    5.8057    0.0000 C   0  0  0  0  0  0  0  0  0  0  0  0
   -6.4762    6.2693    0.0000 C   0  0  0  0  0  0  0  0  0  0  0  0
   -6.9398    7.6958    0.0000 C   0  0  0  0  0  0  0  0  0  0  0  0
   -5.9361    8.8106    0.0000 C   0  0  0  0  0  0  0  0  0  0  0  0
   -4.4688    8.4987    0.0000 O   0  0  0  0  0  0  0  0  0  0  0  0
   -6.3996   10.2371    0.0000 O   0  0  0  0  0  1  0  0  0  0  0  0
   -7.3579    5.0557    0.0000 C   0  0  0  0  0  0  0  0  0  0  0  0
   -8.8579    5.0557    0.0000 C   0  0  0  0  0  0  0  0  0  0  0  0
   -9.6079    6.3548    0.0000 C   0  0  0  0  0  0  0  0  0  0  0  0
  -11.1079    6.3548    0.0000 C   0  0  0  0  0  0  0  0  0  0  0  0
  -11.8579    5.0557    0.0000 O   0  0  0  0  0  0  0  0  0  0  0  0
  -11.8579    7.6538    0.0000 O   0  0  0  0  0  1  0  0  0  0  0  0
   -6.7791    3.4253    0.0000 C   0  0  0  0  0  0  0  0  0  0  0  0
   -6.8380    1.9265    0.0000 C   0  0  0  0  0  0  0  0  0  0  0  0
   -6.3188    0.5192    0.0000 C   0  0  0  0  0  0  0  0  0  0  0  0
   -6.7824   -0.9074    0.0000 C   0  0  0  0  0  0  0  0  0  0  0  0
   -8.2089   -1.3709    0.0000 C   0  0  0  0  0  0  0  0  0  0  0  0
   -9.3237   -0.3672    0.0000 C   0  0  0  0  0  0  0  0  0  0  0  0
   -9.0118    1.1000    0.0000 O   0  0  0  0  0  0  0  0  0  0  0  0
  -10.7502   -0.8308    0.0000 O   0  0  0  0  0  1  0  0  0  0  0  0
   -5.5688   -1.7891    0.0000 C   0  0  0  0  0  0  0  0  0  0  0  0
   -5.5688   -3.2891    0.0000 C   0  0  0  0  0  0  0  0  0  0  0  0
   -6.8679   -4.0391    0.0000 C   0  0  0  0  0  0  0  0  0  0  0  0
   -6.8679   -5.5391    0.0000 C   0  0  0  0  0  0  0  0  0  0  0  0
   -5.5688   -6.2891    0.0000 O   0  0  0  0  0  0  0  0  0  0  0  0
   -8.1669   -6.2891    0.0000 O   0  0  0  0  0  1  0  0  0  0  0  0
   -3.9384   -1.2103    0.0000 C   0  0  0  0  0  0  0  0  0  0  0  0
   -2.4396   -1.2692    0.0000 C   0  0  0  0  0  0  0  0  0  0  0  0
   -1.0323   -0.7500    0.0000 C   0  0  0  0  0  0  0  0  0  0  0  0
    0.3943   -1.2135    0.0000 C   0  0  0  0  0  0  0  0  0  0  0  0
    0.8578   -2.6401    0.0000 C   0  0  0  0  0  0  0  0  0  0  0  0
   -0.1459   -3.7548    0.0000 C   0  0  0  0  0  0  0  0  0  0  0  0
   -1.6131   -3.4430    0.0000 O   0  0  0  0  0  0  0  0  0  0  0  0
    0.3177   -5.1814    0.0000 O   0  0  0  0  0  1  0  0  0  0  0  0
   -1.0323    0.7500    0.0000 N   0  0  0  0  0  0  0  0  0  0  0  0
   -5.3006   -0.5823    0.0000 N   0  0  0  0  0  0  0  0  0  0  0  0
   -6.1511    4.7875    0.0000 N   0  0  0  0  0  0  0  0  0  0  0  0
   -0.7813    5.6380    0.0000 N   0  0  0  0  0  0  0  0  0  0  0  0
  1  2  2  0
  2  3  1  0
  2  4  1  0
  4  5  1  0
  5  6  1  0
  6  7  2  0
  7  8  1  0
  8  9  1  0
  9 10  2  0
 10 11  1  0
 11 12  1  0
 12 13  1  0
 13 14  2  0
 13 15  1  0
 10 16  1  0
 16 17  1  0
 17 18  1  0
 18 19  2  0
 18 20  1  0
 16 21  2  0
 21 22  1  0
 22 23  1  0
 23 24  2  0
 24 25  1  0
 25 26  1  0
 26 27  2  0
 26 28  1  0
 24 29  1  0
 29 30  1  0
 30 31  1  0
 31 32  1  0
 32 33  2  0
 32 34  1  0
 29 35  2  0
 35 36  1  0
 36 37  1  0
 37 38  2  0
 38 39  1  0
 39 40  1  0
 40 41  2  0
 40 42  1  0
 38 43  1  0
 43 44  1  0
 44 45  1  0
 45 46  1  0
 46 47  2  0
 46 48  1  0
 43 49  2  0
 49 50  1  0
 50 51  1  0
 51 52  2  0
 52 53  1  0
 53 54  1  0
 54 55  2  0
 54 56  1  0
 51 57  1  0
 49 58  1  0
 35 59  1  0
 21 60  1  0
 52  6  1  0
 57  7  1  0
 60  9  1  0
 59 23  1  0
 58 37  1  0
M  CHG  8   3  -1  15  -1  20  -1  28  -1  34  -1  42  -1  48  -1  56  -1
M  END
