
     RDKit          2D

 21 21  0  0  0  0  0  0  0  0999 V2000
    2.3660    0.0000    0.0000 C   0  0  0  0  0  0  0  0  0  0  0  0
    3.1160   -1.2990    0.0000 C   0  0  0  0  0  0  0  0  0  0  0  0
    4.6160   -1.2990    0.0000 C   0  0  0  0  0  0  0  0  0  0  0  0
    5.3660    0.0000    0.0000 C   0  0  0  0  0  0  0  0  0  0  0  0
    6.8660    0.0000    0.0000 C   0  0  0  0  0  0  0  0  0  0  0  0
    7.6160    1.2990    0.0000 C   0  0  0  0  0  0  0  0  0  0  0  0
    9.1160    1.2990    0.0000 C   0  0  0  0  0  0  0  0  0  0  0  0
    9.8660    2.5981    0.0000 C   0  0  0  0  0  0  0  0  0  0  0  0
   11.3660    2.5981    0.0000 C   0  0  0  0  0  0  0  0  0  0  0  0
   12.1160    3.8971    0.0000 C   0  0  0  0  0  0  0  0  0  0  0  0
   13.6160    3.8971    0.0000 C   0  0  0  0  0  0  0  0  0  0  0  0
   14.3660    2.5981    0.0000 O   0  0  0  0  0  0  0  0  0  0  0  0
   14.3660    5.1962    0.0000 O   0  0  0  0  0  1  0  0  0  0  0  0
    0.8660    0.0000    0.0000 C   0  0  0  0  0  0  0  0  0  0  0  0
   -0.4330    0.7500    0.0000 O   0  0  0  0  0  0  0  0  0  0  0  0
   -0.4330   -0.7500    0.0000 C   0  0  0  0  0  0  0  0  0  0  0  0
   -1.1830   -2.0490    0.0000 C   0  0  0  0  0  0  0  0  0  0  0  0
   -2.6830   -2.0490    0.0000 C   0  0  0  0  0  0  0  0  0  0  0  0
   -3.4330   -3.3481    0.0000 C   0  0  0  0  0  0  0  0  0  0  0  0
   -2.6830   -4.6471    0.0000 C   0  0  0  0  0  0  0  0  0  0  0  0
   -3.4330   -5.9462    0.0000 C   0  0  0  0  0  0  0  0  0  0  0  0
  1  2  1  0
  2  3  2  0
  3  4  1  0
  4  5  1  0
  5  6  1  0
  6  7  1  0
  7  8  1  0
  8  9  1  0
  9 10  1  0
 10 11  1  0
 11 12  2  0
 11 13  1  0
  1 14  2  0
 14 15  1  0
 15 16  1  0
 16 17  1  6
 17 18  1  0
 18 19  2  0
 19 20  1  0
 20 21  1  0
 16 14  1  0
M  CHG  1  13  -1
M  END
