
     RDKit          2D

 19 19  0  0  0  0  0  0  0  0999 V2000
    5.9357    0.4291    0.0000 O   0  0  0  0  0  0  0  0  0  0  0  0
    4.9320    1.5439    0.0000 P   0  0  0  0  0  0  0  0  0  0  0  0
    3.9283    2.6586    0.0000 O   0  0  0  0  0  1  0  0  0  0  0  0
    6.0467    2.5476    0.0000 O   0  0  0  0  0  1  0  0  0  0  0  0
    3.8173    0.5402    0.0000 O   0  0  0  0  0  0  0  0  0  0  0  0
    2.3907    1.0037    0.0000 C   0  0  0  0  0  0  0  0  0  0  0  0
    1.2760    0.0000    0.0000 C   0  0  0  0  0  0  0  0  0  0  0  0
    2.3907   -1.0037    0.0000 O   0  0  0  0  0  0  0  0  0  0  0  0
    0.3943    1.2135    0.0000 O   0  0  0  0  0  0  0  0  0  0  0  0
   -1.0323    0.7500    0.0000 C   0  0  0  0  0  0  0  0  0  0  0  0
   -2.2458    1.6317    0.0000 C   0  0  0  0  0  0  0  0  0  0  0  0
   -2.0890    3.1235    0.0000 S   0  0  0  0  0  0  0  0  0  0  0  0
   -3.5808    3.2803    0.0000 O   0  0  0  0  0  0  0  0  0  0  0  0
   -0.5972    2.9667    0.0000 O   0  0  0  0  0  0  0  0  0  0  0  0
   -1.9322    4.6152    0.0000 O   0  0  0  0  0  1  0  0  0  0  0  0
   -1.0323   -0.7500    0.0000 C   0  0  0  0  0  0  0  0  0  0  0  0
   -2.2458   -1.6317    0.0000 O   0  0  0  0  0  0  0  0  0  0  0  0
    0.3943   -1.2135    0.0000 C   0  0  0  0  0  0  0  0  0  0  0  0
    0.8578   -2.6401    0.0000 O   0  0  0  0  0  0  0  0  0  0  0  0
  1  2  2  0
  2  3  1  0
  2  4  1  0
  2  5  1  0
  5  6  1  0
  6  7  1  0
  7  8  1  0
  7  9  1  0
  9 10  1  0
 10 11  1  1
 11 12  1  0
 12 13  2  0
 12 14  2  0
 12 15  1  0
 10 16  1  0
 16 17  1  6
 16 18  1  0
 18 19  1  1
 18  7  1  0
M  CHG  3   3  -1   4  -1  15  -1
M  END
