
     RDKit          2D

 51 57  0  0  0  0  0  0  0  0999 V2000
    0.7062    2.6807    0.0000 C   0  0  0  0  0  0  0  0  0  0  0  0
    2.1328    3.1443    0.0000 N   0  0  0  0  0  0  0  0  0  0  0  0
    2.4446    4.6115    0.0000 C   0  0  0  0  0  0  0  0  0  0  0  0
    1.3299    5.6152    0.0000 C   0  0  0  0  0  0  0  0  0  0  0  0
    1.6418    7.0824    0.0000 N   0  0  0  0  0  0  0  0  0  0  0  0
    3.0684    7.5459    0.0000 C   0  0  0  0  0  0  0  0  0  0  0  0
    3.3802    9.0132    0.0000 N   0  0  0  0  0  0  0  0  0  0  0  0
    4.1831    6.5422    0.0000 N   0  0  0  0  0  0  0  0  0  0  0  0
    3.8712    5.0750    0.0000 C   0  0  0  0  0  0  0  0  0  0  0  0
    4.9859    4.0713    0.0000 O   0  0  0  0  0  0  0  0  0  0  0  0
   -0.0967    5.1517    0.0000 N   0  0  0  0  0  0  0  0  0  0  0  0
   -0.4086    3.6844    0.0000 C   0  0  0  0  0  0  0  0  0  0  0  0
   -1.8351    3.2209    0.0000 O   0  0  0  0  0  0  0  0  0  0  0  0
   -2.1470    1.7537    0.0000 C   0  0  0  0  0  0  0  0  0  0  0  0
   -3.5736    1.2902    0.0000 C   0  0  0  0  0  0  0  0  0  0  0  0
   -4.6883    2.2939    0.0000 O   0  0  0  0  0  0  0  0  0  0  0  0
   -6.1149    1.8303    0.0000 P   0  0  0  0  0  0  0  0  0  0  0  0
   -5.6514    0.4038    0.0000 O   0  0  0  0  0  0  0  0  0  0  0  0
   -6.5784    3.2569    0.0000 O   0  0  0  0  0  1  0  0  0  0  0  0
   -7.5415    1.3668    0.0000 O   0  0  0  0  0  0  0  0  0  0  0  0
   -7.8533   -0.1004    0.0000 P   0  0  0  0  0  0  0  0  0  0  0  0
   -9.3206    0.2115    0.0000 O   0  0  0  0  0  0  0  0  0  0  0  0
   -6.3861   -0.4123    0.0000 O   0  0  0  0  0  1  0  0  0  0  0  0
   -8.1652   -1.5676    0.0000 O   0  0  0  0  0  0  0  0  0  0  0  0
   -7.0505   -2.5713    0.0000 C   0  0  0  0  0  0  0  0  0  0  0  0
   -7.3624   -4.0385    0.0000 C   0  0  0  0  0  0  0  0  0  0  0  0
   -6.3587   -5.1533    0.0000 O   0  0  0  0  0  0  0  0  0  0  0  0
   -7.1087   -6.4523    0.0000 C   0  0  0  0  0  0  0  0  0  0  0  0
   -6.4986   -7.8226    0.0000 N   0  0  0  0  0  0  0  0  0  0  0  0
   -5.0313   -8.1345    0.0000 C   0  0  0  0  0  0  0  0  0  0  0  0
   -4.8745   -9.6263    0.0000 N   0  0  0  0  0  0  0  0  0  0  0  0
   -6.2449  -10.2364    0.0000 C   0  0  0  0  0  0  0  0  0  0  0  0
   -7.2486   -9.1217    0.0000 C   0  0  0  0  0  0  0  0  0  0  0  0
   -8.7158   -9.4335    0.0000 N   0  0  0  0  0  0  0  0  0  0  0  0
   -9.1793  -10.8601    0.0000 C   0  0  0  0  0  0  0  0  0  0  0  0
  -10.6465  -11.1720    0.0000 N   0  0  0  0  0  0  0  0  0  0  0  0
   -8.1756  -11.9748    0.0000 N   0  0  0  0  0  0  0  0  0  0  0  0
   -6.7084  -11.6630    0.0000 C   0  0  0  0  0  0  0  0  0  0  0  0
   -5.7047  -12.7777    0.0000 O   0  0  0  0  0  0  0  0  0  0  0  0
   -8.5759   -6.1404    0.0000 C   0  0  0  0  0  0  0  0  0  0  0  0
   -9.6906   -7.1441    0.0000 O   0  0  0  0  0  0  0  0  0  0  0  0
   -8.7327   -4.6486    0.0000 C   0  0  0  0  0  0  0  0  0  0  0  0
  -10.0317   -3.8986    0.0000 O   0  0  0  0  0  0  0  0  0  0  0  0
   -1.0323    0.7500    0.0000 C   0  0  0  0  0  0  0  0  0  0  0  0
    0.3943    1.2135    0.0000 C   0  0  0  0  0  0  0  0  0  0  0  0
    1.2760    0.0000    0.0000 S   0  0  0  0  0  0  0  0  0  0  0  0
    0.3943   -1.2135    0.0000 Mo  0  0  0  0  0  7  0  0  0  0  0  0
   -0.6664   -2.2742    0.0000 O   0  0  0  0  0  0  0  0  0  0  0  0
    0.8578   -2.6401    0.0000 O   0  0  0  0  0  0  0  0  0  0  0  0
    1.8758   -1.4482    0.0000 O   0  0  0  0  0  1  0  0  0  0  0  0
   -1.0323   -0.7500    0.0000 S   0  0  0  0  0  0  0  0  0  0  0  0
  1  2  1  1
  2  3  1  0
  3  4  2  0
  4  5  1  0
  5  6  2  0
  6  7  1  0
  6  8  1  0
  8  9  1  0
  9 10  2  0
  4 11  1  0
 12 11  1  1
 12 13  1  0
 13 14  1  0
 14 15  1  1
 15 16  1  0
 16 17  1  0
 17 18  2  0
 17 19  1  0
 17 20  1  0
 20 21  1  0
 21 22  2  0
 21 23  1  0
 21 24  1  0
 24 25  1  0
 26 25  1  1
 26 27  1  0
 27 28  1  0
 28 29  1  1
 29 30  1  0
 30 31  2  0
 31 32  1  0
 32 33  2  0
 33 34  1  0
 34 35  2  0
 35 36  1  0
 35 37  1  0
 37 38  1  0
 38 39  2  0
 28 40  1  0
 40 41  1  6
 40 42  1  0
 42 43  1  6
 14 44  1  0
 44 45  2  0
 45 46  1  0
 46 47  1  0
 47 48  2  0
 47 49  2  0
 47 50  1  0
 47 51  1  0
 12  1  1  0
 42 26  1  0
 51 44  1  0
 45  1  1  0
  9  3  1  0
 33 29  1  0
 38 32  1  0
M  CHG  4  19  -1  23  -1  47  -1  50  -1
M  RAD  1  47   2
M  END
