
     RDKit          2D

 40 43  0  0  0  0  0  0  0  0999 V2000
    4.8308   -6.3240    0.0000 R   0  0  0  0  0  0  0  0  0  0  0  0
    4.6740   -4.8322    0.0000 O   0  0  0  0  0  0  0  0  0  0  0  0
    3.3037   -4.2221    0.0000 C   0  0  0  0  0  0  0  0  0  0  0  0
    2.9918   -2.7549    0.0000 C   0  0  0  0  0  0  0  0  0  0  0  0
    1.5000   -2.5981    0.0000 C   0  0  0  0  0  0  0  0  0  0  0  0
    0.7500   -1.2990    0.0000 N   0  0  0  0  0  0  0  0  0  0  0  0
    1.5000    0.0000    0.0000 C   0  0  0  0  0  0  0  0  0  0  0  0
    0.7500    1.2990    0.0000 C   0  0  0  0  0  0  0  0  0  0  0  0
   -0.7500    1.2990    0.0000 C   0  0  0  0  0  0  0  0  0  0  0  0
   -1.5000    2.5981    0.0000 N   0  0  0  0  0  0  0  0  0  0  0  0
   -1.5000    0.0000    0.0000 N   0  0  0  0  0  0  0  0  0  0  0  0
   -0.7500   -1.2990    0.0000 C   0  0  0  0  0  0  0  0  0  0  0  0
   -1.5000   -2.5981    0.0000 O   0  0  0  0  0  0  0  0  0  0  0  0
    0.8899   -3.9684    0.0000 O   0  0  0  0  0  0  0  0  0  0  0  0
    2.0046   -4.9721    0.0000 C   0  0  0  0  0  0  0  0  0  0  0  0
    1.8478   -6.4639    0.0000 C   0  0  0  0  0  0  0  0  0  0  0  0
    0.4775   -7.0740    0.0000 O   0  0  0  0  0  0  0  0  0  0  0  0
    0.3207   -8.5658    0.0000 P   0  0  0  0  0  0  0  0  0  0  0  0
    1.8125   -8.7226    0.0000 O   0  0  0  0  0  0  0  0  0  0  0  0
   -1.1711   -8.4090    0.0000 O   0  0  0  0  0  1  0  0  0  0  0  0
    0.1639  -10.0575    0.0000 O   0  0  0  0  0  0  0  0  0  0  0  0
    1.3774  -10.9392    0.0000 C   0  0  0  0  0  0  0  0  0  0  0  0
    2.8040  -10.4757    0.0000 C   0  0  0  0  0  0  0  0  0  0  0  0
    3.6857  -11.6892    0.0000 C   0  0  0  0  0  0  0  0  0  0  0  0
    5.1857  -11.6892    0.0000 N   0  0  0  0  0  0  0  0  0  0  0  0
    5.9357  -12.9883    0.0000 C   0  0  0  0  0  0  0  0  0  0  0  0
    7.4357  -12.9883    0.0000 C   0  0  0  0  0  0  0  0  0  0  0  0
    8.1857  -11.6892    0.0000 C   0  0  0  0  0  0  0  0  0  0  0  0
    9.6857  -11.6892    0.0000 N   0  0  0  0  0  0  0  0  0  0  0  0
    7.4357  -10.3902    0.0000 N   0  0  0  0  0  0  0  0  0  0  0  0
    5.9357  -10.3902    0.0000 C   0  0  0  0  0  0  0  0  0  0  0  0
    5.1857   -9.0911    0.0000 O   0  0  0  0  0  0  0  0  0  0  0  0
    2.8040  -12.9027    0.0000 O   0  0  0  0  0  0  0  0  0  0  0  0
    1.3774  -12.4392    0.0000 C   0  0  0  0  0  0  0  0  0  0  0  0
    0.1639  -13.3209    0.0000 C   0  0  0  0  0  0  0  0  0  0  0  0
    0.3207  -14.8127    0.0000 O   0  0  0  0  0  0  0  0  0  0  0  0
   -0.8928  -15.6944    0.0000 P   0  0  0  0  0  0  0  0  0  0  0  0
   -0.0111  -16.9079    0.0000 R   0  0  0  0  0  0  0  0  0  0  0  0
   -1.7745  -14.4808    0.0000 O   0  0  0  0  0  0  0  0  0  0  0  0
   -2.1063  -16.5760    0.0000 O   0  0  0  0  0  1  0  0  0  0  0  0
  1  2  1  0
  3  2  1  6
  3  4  1  0
  4  5  1  0
  5  6  1  1
  6  7  1  0
  7  8  2  0
  8  9  1  0
  9 10  1  0
  9 11  2  0
 11 12  1  0
 12 13  2  0
  5 14  1  0
 14 15  1  0
 15 16  1  1
 16 17  1  0
 17 18  1  0
 18 19  2  0
 18 20  1  0
 18 21  1  0
 22 21  1  1
 22 23  1  0
 23 24  1  0
 24 25  1  6
 25 26  1  0
 26 27  2  0
 27 28  1  0
 28 29  1  0
 28 30  2  0
 30 31  1  0
 31 32  2  0
 24 33  1  0
 33 34  1  0
 34 35  1  6
 35 36  1  0
 36 37  1  0
 37 38  1  0
 37 39  2  0
 37 40  1  0
 15  3  1  0
 34 22  1  0
 12  6  1  0
 31 25  1  0
M  CHG  2  20  -1  40  -1
M  END
