
     RDKit          2D

 40 44  0  0  0  0  0  0  0  0999 V2000
   -6.2403    5.8677    0.0000 R   0  0  0  0  0  0  0  0  0  0  0  0
   -6.3776    4.3740    0.0000 O   0  0  0  0  0  0  0  0  0  0  0  0
   -5.1526    3.5083    0.0000 C   0  0  0  0  0  0  0  0  0  0  0  0
   -3.7322    3.9904    0.0000 C   0  0  0  0  0  0  0  0  0  0  0  0
   -2.8347    2.7885    0.0000 C   0  0  0  0  0  0  0  0  0  0  0  0
   -4.3219    2.5927    0.0000 O   0  0  0  0  0  0  0  0  0  0  0  0
   -5.6209    1.8427    0.0000 C   0  0  0  0  0  0  0  0  0  0  0  0
   -6.5341    0.6527    0.0000 C   0  0  0  0  0  0  0  0  0  0  0  0
   -6.9223   -0.7962    0.0000 O   0  0  0  0  0  0  0  0  0  0  0  0
   -6.7265   -2.2833    0.0000 P   0  0  0  0  0  0  0  0  0  0  0  0
   -7.6396   -3.4734    0.0000 O   0  0  0  0  0  0  0  0  0  0  0  0
   -8.1754   -1.8951    0.0000 O   0  0  0  0  0  1  0  0  0  0  0  0
   -5.9765   -3.5824    0.0000 O   0  0  0  0  0  0  0  0  0  0  0  0
   -4.7865   -4.4955    0.0000 C   0  0  0  0  0  0  0  0  0  0  0  0
   -3.3376   -4.8837    0.0000 C   0  0  0  0  0  0  0  0  0  0  0  0
   -1.8504   -4.6880    0.0000 C   0  0  0  0  0  0  0  0  0  0  0  0
   -2.4062   -6.0812    0.0000 O   0  0  0  0  0  0  0  0  0  0  0  0
   -3.9030   -5.9831    0.0000 C   0  0  0  0  0  0  0  0  0  0  0  0
   -4.8622   -7.1363    0.0000 C   0  0  0  0  0  0  0  0  0  0  0  0
   -6.3405   -6.8823    0.0000 O   0  0  0  0  0  0  0  0  0  0  0  0
   -7.2997   -8.0356    0.0000 P   0  0  0  0  0  0  0  0  0  0  0  0
   -8.4529   -7.0764    0.0000 R   0  0  0  0  0  0  0  0  0  0  0  0
   -6.1464   -8.9947    0.0000 O   0  0  0  0  0  0  0  0  0  0  0  0
   -8.2588   -9.1888    0.0000 O   0  0  0  0  0  1  0  0  0  0  0  0
   -0.5514   -3.9380    0.0000 N   0  0  0  0  0  0  0  0  0  0  0  0
    0.0227   -5.3238    0.0000 C   0  0  0  0  0  0  0  0  0  0  0  0
   -0.8905   -6.5138    0.0000 O   0  0  0  0  0  0  0  0  0  0  0  0
    1.5098   -5.5196    0.0000 N   0  0  0  0  0  0  0  0  0  0  0  0
    2.4230   -4.3295    0.0000 C   0  0  0  0  0  0  0  0  0  0  0  0
    3.9101   -4.5253    0.0000 N   0  0  0  0  0  0  0  0  0  0  0  0
    1.8489   -2.9437    0.0000 C   0  0  0  0  0  0  0  0  0  0  0  0
    2.7621   -1.7537    0.0000 N   0  0  0  0  0  4  0  0  0  0  0  0
    0.3618   -2.7479    0.0000 C   0  0  0  0  0  0  0  0  0  0  0  0
    0.7500   -1.2990    0.0000 C   0  0  0  0  0  0  0  0  0  0  0  0
    1.5000    0.0000    0.0000 N   0  0  0  0  0  0  0  0  0  0  0  0
    0.7500    1.2990    0.0000 C   0  0  0  0  0  0  0  0  0  0  0  0
    1.5000    2.5981    0.0000 O   0  0  0  0  0  0  0  0  0  0  0  0
   -0.7500    1.2990    0.0000 N   0  0  0  0  0  0  0  0  0  0  0  0
   -1.5000    0.0000    0.0000 C   0  0  0  0  0  0  0  0  0  0  0  0
   -0.7500   -1.2990    0.0000 C   0  0  0  0  0  0  0  0  0  0  0  0
  1  2  1  0
  3  2  1  1
  3  4  1  0
  5  4  1  6
  5  6  1  0
  6  7  1  0
  7  8  1  6
  8  9  1  0
  9 10  1  0
 10 11  2  0
 10 12  1  0
 10 13  1  0
 14 13  1  1
 14 15  1  0
 15 16  1  0
 16 17  1  6
 17 18  1  0
 18 19  1  6
 19 20  1  0
 20 21  1  0
 21 22  1  0
 21 23  2  0
 21 24  1  0
 16 25  1  0
 25 26  1  0
 26 27  2  0
 26 28  1  0
 28 29  2  0
 29 30  1  0
 29 31  1  0
 31 32  1  1
 31 33  1  0
 33 34  1  1
 34 35  2  0
 35 36  1  0
 36 37  2  0
 36 38  1  0
 38 39  1  0
 39 40  2  0
  7  3  1  0
 18 14  1  0
 33 25  1  0
 40 34  1  0
 38  5  1  0
M  CHG  3  12  -1  24  -1  32   1
M  END
