
     RDKit          2D

 34 37  0  0  0  0  0  0  0  0999 V2000
    0.7062    2.6807    0.0000 C   0  0  0  0  0  0  0  0  0  0  0  0
    2.1859    2.9265    0.0000 C   0  0  0  0  0  0  0  0  0  0  0  0
    2.9164    4.2366    0.0000 O   0  0  0  0  0  0  0  0  0  0  0  0
    2.3475    5.6245    0.0000 C   0  0  0  0  0  0  0  0  0  0  0  0
    3.3512    6.7393    0.0000 O   0  0  0  0  0  0  0  0  0  0  0  0
    0.9077    6.0452    0.0000 C   0  0  0  0  0  0  0  0  0  0  0  0
    0.7733    7.5391    0.0000 C   0  0  0  0  0  0  0  0  0  0  0  0
   -0.5878    8.1697    0.0000 C   0  0  0  0  0  0  0  0  0  0  0  0
   -0.7222    9.6636    0.0000 O   0  0  0  0  0  0  0  0  0  0  0  0
   -1.8143    7.3063    0.0000 C   0  0  0  0  0  0  0  0  0  0  0  0
   -3.1754    7.9368    0.0000 O   0  0  0  0  0  0  0  0  0  0  0  0
   -1.6799    5.8123    0.0000 C   0  0  0  0  0  0  0  0  0  0  0  0
   -0.3188    5.1818    0.0000 C   0  0  0  0  0  0  0  0  0  0  0  0
   -1.6065    4.4124    0.0000 C   0  0  0  0  0  0  0  0  0  0  0  0
   -0.4086    3.6844    0.0000 C   0  0  0  0  0  0  0  0  0  0  0  0
   -1.8351    3.2209    0.0000 C   0  0  0  0  0  0  0  0  0  0  0  0
   -2.1470    1.7537    0.0000 C   0  0  0  0  0  0  0  0  0  0  0  0
   -1.0323    0.7500    0.0000 C   0  0  0  0  0  0  0  0  0  0  0  0
   -2.4026    0.1399    0.0000 C   0  0  0  0  0  0  0  0  0  0  0  0
    0.3943    1.2135    0.0000 C   0  0  0  0  0  0  0  0  0  0  0  0
    1.2760    0.0000    0.0000 C   0  0  0  0  0  0  0  0  0  0  0  0
    0.3943   -1.2135    0.0000 C   0  0  0  0  0  0  0  0  0  0  0  0
   -1.0323   -0.7500    0.0000 C   0  0  0  0  0  0  0  0  0  0  0  0
   -2.2458   -1.6317    0.0000 C   0  0  0  0  0  0  0  0  0  0  0  0
   -2.0890   -3.1235    0.0000 C   0  0  0  0  0  0  0  0  0  0  0  0
   -3.6161   -1.0216    0.0000 C   0  0  0  0  0  0  0  0  0  0  0  0
   -3.7729    0.4702    0.0000 O   0  0  0  0  0  0  0  0  0  0  0  0
   -4.8297   -1.9033    0.0000 C   0  0  0  0  0  0  0  0  0  0  0  0
   -4.6729   -3.3950    0.0000 O   0  0  0  0  0  0  0  0  0  0  0  0
   -6.2000   -1.2931    0.0000 C   0  0  0  0  0  0  0  0  0  0  0  0
   -7.4135   -2.1748    0.0000 C   0  0  0  0  0  0  0  0  0  0  0  0
   -6.3568    0.1986    0.0000 C   0  0  0  0  0  0  0  0  0  0  0  0
   -7.7271    0.8087    0.0000 C   0  0  0  0  0  0  0  0  0  0  0  0
   -5.1432    1.0803    0.0000 C   0  0  0  0  0  0  0  0  0  0  0  0
  1  2  1  1
  2  3  1  0
  3  4  1  0
  4  5  2  0
  4  6  1  0
  6  7  1  6
  7  8  1  0
  8  9  1  1
  8 10  1  0
 10 11  1  1
 10 12  1  0
 12 13  1  0
 13 14  1  6
 13 15  1  0
 15 16  1  6
 16 17  1  0
 17 18  1  0
 18 19  1  6
 18 20  1  0
 20 21  1  6
 21 22  1  0
 23 22  1  6
 23 24  1  0
 24 25  1  6
 24 26  1  0
 26 27  1  6
 26 28  1  0
 28 29  1  6
 28 30  1  0
 30 31  1  1
 30 32  1  0
 32 33  1  0
 32 34  1  0
 15  1  1  0
 23 18  1  0
 20  1  1  0
 13  6  1  0
M  END
