
     RDKit          2D

 29 31  0  0  0  0  0  0  0  0999 V2000
    3.0000    0.0000    0.0000 N   0  0  0  0  0  0  0  0  0  0  0  0
    1.5000    0.0000    0.0000 C   0  0  0  0  0  0  0  0  0  0  0  0
    0.7500   -1.2990    0.0000 N   0  0  0  0  0  0  0  0  0  0  0  0
   -0.7500   -1.2990    0.0000 C   0  0  0  0  0  0  0  0  0  0  0  0
   -1.5000    0.0000    0.0000 C   0  0  0  0  0  0  0  0  0  0  0  0
   -2.9672   -0.3119    0.0000 N   0  0  0  0  0  0  0  0  0  0  0  0
   -3.1240   -1.8037    0.0000 C   0  0  0  0  0  0  0  0  0  0  0  0
   -4.4231   -2.5537    0.0000 O   0  0  0  0  0  0  0  0  0  0  0  0
   -1.7537   -2.4138    0.0000 N   0  0  0  0  0  0  0  0  0  0  0  0
   -1.4418   -3.8810    0.0000 C   0  0  0  0  0  0  0  0  0  0  0  0
   -0.0715   -4.4911    0.0000 O   0  0  0  0  0  0  0  0  0  0  0  0
   -0.2283   -5.9829    0.0000 C   0  0  0  0  0  0  0  0  0  0  0  0
    0.8864   -6.9866    0.0000 C   0  0  0  0  0  0  0  0  0  0  0  0
    0.5745   -8.4538    0.0000 O   0  0  0  0  0  0  0  0  0  0  0  0
    1.6893   -9.4575    0.0000 P   0  0  0  0  0  0  0  0  0  0  0  0
    2.6930   -8.3428    0.0000 O   0  0  0  0  0  0  0  0  0  0  0  0
    0.6856  -10.5722    0.0000 O   0  0  0  0  0  1  0  0  0  0  0  0
    2.8040  -10.4612    0.0000 O   0  0  0  0  0  0  0  0  0  0  0  0
    4.2306   -9.9976    0.0000 P   0  0  0  0  0  0  0  0  0  0  0  0
    4.6941  -11.4242    0.0000 O   0  0  0  0  0  0  0  0  0  0  0  0
    3.7670   -8.5711    0.0000 O   0  0  0  0  0  1  0  0  0  0  0  0
    5.6572   -9.5341    0.0000 O   0  0  0  0  0  1  0  0  0  0  0  0
   -1.6955   -6.2947    0.0000 C   0  0  0  0  0  0  0  0  0  0  0  0
   -2.3056   -7.6651    0.0000 O   0  0  0  0  0  0  0  0  0  0  0  0
   -2.4455   -4.9957    0.0000 C   0  0  0  0  0  0  0  0  0  0  0  0
   -3.9373   -4.8389    0.0000 O   0  0  0  0  0  0  0  0  0  0  0  0
   -0.7500    1.2990    0.0000 C   0  0  0  0  0  0  0  0  0  0  0  0
   -1.5000    2.5981    0.0000 O   0  0  0  0  0  0  0  0  0  0  0  0
    0.7500    1.2990    0.0000 N   0  0  0  0  0  0  0  0  0  0  0  0
  1  2  1  0
  2  3  2  0
  3  4  1  0
  4  5  2  0
  5  6  1  0
  6  7  1  0
  7  8  2  0
  7  9  1  0
 10  9  1  6
 10 11  1  0
 11 12  1  0
 12 13  1  6
 13 14  1  0
 14 15  1  0
 15 16  2  0
 15 17  1  0
 15 18  1  0
 18 19  1  0
 19 20  2  0
 19 21  1  0
 19 22  1  0
 12 23  1  0
 23 24  1  1
 23 25  1  0
 25 26  1  1
  5 27  1  0
 27 28  2  0
 27 29  1  0
 29  2  1  0
  9  4  1  0
 25 10  1  0
M  CHG  3  17  -1  21  -1  22  -1
M  END
