
     RDKit          2D

 43 50  0  0  0  0  0  0  0  0999 V2000
   -1.2990   -5.8573    0.0000 C   0  0  0  0  0  0  0  0  0  0  0  0
   -0.0000   -5.1073    0.0000 C   0  0  0  0  0  0  0  0  0  0  0  0
   -0.0000   -3.6073    0.0000 C   0  0  0  0  0  0  0  0  0  0  0  0
    1.2135   -2.7256    0.0000 C   0  0  0  0  0  0  0  0  0  0  0  0
    2.6401   -3.1891    0.0000 C   0  0  0  0  0  0  0  0  0  0  0  0
    0.7500   -1.2990    0.0000 C   0  0  0  0  0  0  0  0  0  0  0  0
    1.5000    0.0000    0.0000 C   0  0  0  0  0  0  0  0  0  0  0  0
    0.7500    1.2990    0.0000 C   0  0  0  0  0  0  0  0  0  0  0  0
    1.2135    2.7256    0.0000 C   0  0  0  0  0  0  0  0  0  0  0  0
    2.6401    3.1891    0.0000 C   0  0  0  0  0  0  0  0  0  0  0  0
    3.7548    2.1855    0.0000 C   0  0  0  0  0  0  0  0  0  0  0  0
    0.0000    3.6073    0.0000 C   0  0  0  0  0  0  0  0  0  0  0  0
    0.0000    5.1073    0.0000 C   0  0  0  0  0  0  0  0  0  0  0  0
   -1.2135    2.7256    0.0000 C   0  0  0  0  0  0  0  0  0  0  0  0
   -2.7202    2.7406    0.0000 C   0  0  0  0  0  0  0  0  0  0  0  0
   -3.6019    1.5271    0.0000 C   0  0  0  0  0  0  0  0  0  0  0  0
   -5.0937    1.3703    0.0000 C   0  0  0  0  0  0  0  0  0  0  0  0
   -6.0974    2.4850    0.0000 C   0  0  0  0  0  0  0  0  0  0  0  0
   -5.4055   -0.0969    0.0000 C   0  0  0  0  0  0  0  0  0  0  0  0
   -6.7759   -0.7070    0.0000 C   0  0  0  0  0  0  0  0  0  0  0  0
   -7.9894    0.1747    0.0000 C   0  0  0  0  0  0  0  0  0  0  0  0
   -9.3597   -0.4354    0.0000 C   0  0  0  0  0  0  0  0  0  0  0  0
   -9.5165   -1.9272    0.0000 O   0  0  0  0  0  0  0  0  0  0  0  0
  -10.5732    0.4462    0.0000 O   0  0  0  0  0  1  0  0  0  0  0  0
   -4.1065   -0.8469    0.0000 C   0  0  0  0  0  0  0  0  0  0  0  0
   -2.9918    0.1568    0.0000 N   0  0  0  0  0  4  0  0  0  0  0  0
   -1.5000    0.0000    0.0000 Fe  0  0  0  0  0  4  0  0  0  0  0  0
   -0.7500    1.2990    0.0000 N   0  0  0  0  0  0  0  0  0  0  0  0
   -1.1721   -1.4706    0.0000 N   0  0  0  0  0  0  0  0  0  0  0  0
   -2.1758   -2.5854    0.0000 C   0  0  0  0  0  0  0  0  0  0  0  0
   -3.6430   -2.2735    0.0000 C   0  0  0  0  0  0  0  0  0  0  0  0
   -2.2778   -1.8526    0.0000 C   0  0  0  0  0  0  0  0  0  0  0  0
   -4.8451   -2.7253    0.0000 C   0  0  0  0  0  0  0  0  0  0  0  0
   -4.8451   -4.2253    0.0000 C   0  0  0  0  0  0  0  0  0  0  0  0
   -6.1441   -4.9753    0.0000 C   0  0  0  0  0  0  0  0  0  0  0  0
   -7.4432   -4.2253    0.0000 O   0  0  0  0  0  0  0  0  0  0  0  0
   -6.1441   -6.4753    0.0000 O   0  0  0  0  0  1  0  0  0  0  0  0
   -2.1742   -0.8671    0.0000 C   0  0  0  0  0  0  0  0  0  0  0  0
   -4.5040    0.5202    0.0000 C   0  0  0  0  0  0  0  0  0  0  0  0
   -1.9221   -0.1716    0.0000 C   0  0  0  0  0  0  0  0  0  0  0  0
   -2.2835   -1.6744    0.0000 C   0  0  0  0  0  0  0  0  0  0  0  0
   -1.2135   -2.7256    0.0000 C   0  0  0  0  0  0  0  0  0  0  0  0
   -0.7500   -1.2990    0.0000 N   0  0  0  0  0  4  0  0  0  0  0  0
  1  2  2  0
  2  3  1  0
  3  4  2  0
  4  5  1  0
  4  6  1  0
  6  7  2  0
  7  8  1  0
  8  9  2  0
  9 10  1  0
 10 11  2  0
  9 12  1  0
 12 13  1  0
 12 14  2  0
 14 15  1  0
 15 16  2  0
 16 17  1  0
 17 18  1  0
 17 19  2  0
 19 20  1  0
 20 21  1  0
 21 22  1  0
 22 23  2  0
 22 24  1  0
 19 25  1  0
 25 26  2  0
 26 27  1  0
 27 28  1  0
 27 29  1  0
 29 30  1  0
 30 31  2  0
 30 32  1  0
 32 33  1  0
 33 34  1  0
 34 35  1  0
 35 36  2  0
 35 37  1  0
 32 38  2  0
 38 39  1  0
 38 40  1  0
 40 41  2  0
 41 42  1  0
 42 43  2  0
 42  3  1  0
 43  6  1  0
 28  8  1  0
 40 29  1  0
 28 14  1  0
 26 16  1  0
 43 27  1  0
 31 25  1  0
M  CHG  5  24  -1  26   1  27  -2  37  -1  43   1
M  END
