
     RDKit          2D

 44 48  0  0  0  0  0  0  0  0999 V2000
    3.7500   -1.2990    0.0000 O   0  0  0  0  0  0  0  0  0  0  0  0
    3.0000    0.0000    0.0000 C   0  0  0  0  0  0  0  0  0  0  0  0
    1.5000    0.0000    0.0000 C   0  0  0  0  0  0  0  0  0  0  0  0
    0.7500   -1.2990    0.0000 O   0  0  0  0  0  0  0  0  0  0  0  0
   -0.7500   -1.2990    0.0000 C   0  0  0  0  0  0  0  0  0  0  0  0
   -1.5000   -2.9544    0.0000 O   0  0  0  0  0  0  0  0  0  0  0  0
   -2.6491   -3.9186    0.0000 C   0  0  0  0  0  0  0  0  0  0  0  0
   -4.0586   -4.4316    0.0000 C   0  0  0  0  0  0  0  0  0  0  0  0
   -5.5586   -4.4316    0.0000 O   0  0  0  0  0  0  0  0  0  0  0  0
   -6.9681   -3.9186    0.0000 C   0  0  0  0  0  0  0  0  0  0  0  0
   -8.1172   -2.9544    0.0000 O   0  0  0  0  0  0  0  0  0  0  0  0
   -8.8672   -1.6554    0.0000 C   0  0  0  0  0  0  0  0  0  0  0  0
   -9.1277   -0.1782    0.0000 C   0  0  0  0  0  0  0  0  0  0  0  0
  -10.3066   -0.4722    0.0000 O   0  0  0  0  0  0  0  0  0  0  0  0
   -8.8672    1.2990    0.0000 C   0  0  0  0  0  0  0  0  0  0  0  0
   -8.1172    2.5981    0.0000 O   0  0  0  0  0  0  0  0  0  0  0  0
   -6.9681    3.5623    0.0000 C   0  0  0  0  0  0  0  0  0  0  0  0
   -5.5586    4.0753    0.0000 C   0  0  0  0  0  0  0  0  0  0  0  0
   -4.0586    4.0753    0.0000 O   0  0  0  0  0  0  0  0  0  0  0  0
   -2.6491    3.5623    0.0000 C   0  0  0  0  0  0  0  0  0  0  0  0
   -1.5000    2.5981    0.0000 O   0  0  0  0  0  0  0  0  0  0  0  0
   -0.7500    1.2990    0.0000 C   0  0  0  0  0  0  0  0  0  0  0  0
   -1.5000    0.0000    0.0000 C   0  0  0  0  0  0  0  0  0  0  0  0
   -3.0000    0.0000    0.0000 O   0  0  0  0  0  0  0  0  0  0  0  0
    0.7500    1.2990    0.0000 C   0  0  0  0  0  0  0  0  0  0  0  0
    1.5000    2.5981    0.0000 O   0  0  0  0  0  0  0  0  0  0  0  0
   -2.7395    5.1013    0.0000 C   0  0  0  0  0  0  0  0  0  0  0  0
   -1.3300    5.6144    0.0000 O   0  0  0  0  0  0  0  0  0  0  0  0
   -3.8886    6.0655    0.0000 C   0  0  0  0  0  0  0  0  0  0  0  0
   -3.6281    7.5427    0.0000 O   0  0  0  0  0  0  0  0  0  0  0  0
   -5.2981    5.5525    0.0000 C   0  0  0  0  0  0  0  0  0  0  0  0
   -6.4472    6.5167    0.0000 O   0  0  0  0  0  0  0  0  0  0  0  0
  -10.3672    0.9427    0.0000 O   0  0  0  0  0  0  0  0  0  0  0  0
  -11.1172   -0.3563    0.0000 C   0  0  0  0  0  0  0  0  0  0  0  0
  -12.6172   -0.3563    0.0000 C   0  0  0  0  0  0  0  0  0  0  0  0
  -13.3672    0.9427    0.0000 O   0  0  0  0  0  0  0  0  0  0  0  0
  -10.3672   -1.6554    0.0000 C   0  0  0  0  0  0  0  0  0  0  0  0
  -11.1172   -2.9544    0.0000 O   0  0  0  0  0  0  0  0  0  0  0  0
   -6.8777   -5.4577    0.0000 C   0  0  0  0  0  0  0  0  0  0  0  0
   -8.2872   -5.9707    0.0000 O   0  0  0  0  0  0  0  0  0  0  0  0
   -5.7286   -6.4219    0.0000 C   0  0  0  0  0  0  0  0  0  0  0  0
   -5.9891   -7.8991    0.0000 O   0  0  0  0  0  0  0  0  0  0  0  0
   -4.3191   -5.9088    0.0000 C   0  0  0  0  0  0  0  0  0  0  0  0
   -3.1700   -6.8730    0.0000 O   0  0  0  0  0  0  0  0  0  0  0  0
  1  2  1  0
  3  2  1  1
  3  4  1  0
  5  4  1  6
  5  6  1  0
  6  7  1  0
  8  7  1  6
  8  9  1  0
  9 10  1  0
 10 11  1  1
 12 11  1  1
 12 13  1  0
 13 14  1  1
 13 15  1  0
 15 16  1  6
 16 17  1  0
 18 17  1  6
 18 19  1  0
 19 20  1  0
 20 21  1  1
 22 21  1  1
 22 23  1  0
 23 24  1  6
 22 25  1  0
 25 26  1  6
 20 27  1  0
 27 28  1  1
 27 29  1  0
 29 30  1  6
 29 31  1  0
 31 32  1  1
 15 33  1  0
 33 34  1  0
 34 35  1  1
 35 36  1  0
 34 37  1  0
 37 38  1  6
 10 39  1  0
 39 40  1  1
 39 41  1  0
 41 42  1  6
 41 43  1  0
 43 44  1  1
 25  3  1  0
 23  5  1  0
 43  8  1  0
 37 12  1  0
 31 18  1  0
M  END
