
     RDKit          2D

 85 88  0  0  0  0  0  0  0  0999 V2000
    7.5000   -2.5981    0.0000 R   0  0  0  0  0  0  0  0  0  0  0  0
    6.0000   -2.5981    0.0000 C   0  0  0  0  0  0  0  0  0  0  0  0
    5.2500   -3.8971    0.0000 O   0  0  0  0  0  0  0  0  0  0  0  0
    5.2500   -1.2990    0.0000 C   0  0  0  0  0  0  0  0  0  0  0  0
    3.7500   -1.2990    0.0000 C   0  0  0  0  0  0  0  0  0  0  0  0
    3.0000   -2.5981    0.0000 O   0  0  0  0  0  0  0  0  0  0  0  0
    3.0000    0.0000    0.0000 N   0  0  0  0  0  0  0  0  0  0  0  0
    1.5000    0.0000    0.0000 C   0  0  0  0  0  0  0  0  0  0  0  0
    0.7500   -1.2990    0.0000 C   0  0  0  0  0  0  0  0  0  0  0  0
    1.5000   -2.5981    0.0000 O   0  0  0  0  0  0  0  0  0  0  0  0
    0.7500   -3.8971    0.0000 C   0  0  0  0  0  0  0  0  0  0  0  0
    1.5000   -5.1962    0.0000 C   0  0  0  0  0  0  0  0  0  0  0  0
    3.0000   -5.1962    0.0000 O   0  0  0  0  0  0  0  0  0  0  0  0
    3.7500   -6.4952    0.0000 C   0  0  0  0  0  0  0  0  0  0  0  0
    5.2500   -6.4952    0.0000 O   0  0  0  0  0  0  0  0  0  0  0  0
    6.0000   -7.7942    0.0000 P   0  0  0  0  0  0  0  0  0  0  0  0
    7.2990   -7.0442    0.0000 O   0  0  0  0  0  0  0  0  0  0  0  0
    4.7010   -8.5442    0.0000 O   0  0  0  0  0  1  0  0  0  0  0  0
    6.7500   -9.0933    0.0000 O   0  0  0  0  0  1  0  0  0  0  0  0
    3.0000   -7.7942    0.0000 C   0  0  0  0  0  0  0  0  0  0  0  0
    3.7500   -9.0933    0.0000 N   0  0  0  0  0  0  0  0  0  0  0  0
    3.0000  -10.3923    0.0000 C   0  0  0  0  0  0  0  0  0  0  0  0
    1.5000  -10.3923    0.0000 O   0  0  0  0  0  0  0  0  0  0  0  0
    3.7500  -11.6913    0.0000 C   0  0  0  0  0  0  0  0  0  0  0  0
    3.0000  -12.9904    0.0000 C   0  0  0  0  0  0  0  0  0  0  0  0
    3.7500  -14.2894    0.0000 R   0  0  0  0  0  0  0  0  0  0  0  0
    1.5000  -12.9904    0.0000 O   0  0  0  0  0  0  0  0  0  0  0  0
    1.5000   -7.7942    0.0000 C   0  0  0  0  0  0  0  0  0  0  0  0
    0.7500   -9.0933    0.0000 O   0  0  0  0  0  0  0  0  0  0  0  0
   -0.7500   -9.0933    0.0000 C   0  0  0  0  0  0  0  0  0  0  0  0
   -1.5000   -7.7942    0.0000 O   0  0  0  0  0  0  0  0  0  0  0  0
   -1.5000  -10.3923    0.0000 C   0  0  0  0  0  0  0  0  0  0  0  0
   -3.0000  -10.3923    0.0000 C   0  0  0  0  0  0  0  0  0  0  0  0
   -3.7500  -11.6913    0.0000 R   0  0  0  0  0  0  0  0  0  0  0  0
   -3.7500   -9.0933    0.0000 O   0  0  0  0  0  0  0  0  0  0  0  0
    0.7500   -6.4952    0.0000 C   0  0  0  0  0  0  0  0  0  0  0  0
   -0.7500   -6.4952    0.0000 O   0  0  0  0  0  0  0  0  0  0  0  0
   -0.7500   -1.2990    0.0000 O   0  0  0  0  0  0  0  0  0  0  0  0
   -1.5000    0.0000    0.0000 C   0  0  0  0  0  0  0  0  0  0  0  0
   -3.0000    0.0000    0.0000 C   0  0  0  0  0  0  0  0  0  0  0  0
   -3.7500    1.2990    0.0000 O   0  0  0  0  0  0  0  0  0  0  0  0
   -5.2500    1.2990    0.0000 C   0  0  0  0  0  0  0  0  0  0  0  0
   -4.9895   -0.1782    0.0000 C   0  0  0  0  0  0  0  0  0  0  0  0
   -3.5800   -0.6912    0.0000 O   0  0  0  0  0  0  0  0  0  0  0  0
   -6.1386   -1.1424    0.0000 O   0  0  0  0  0  1  0  0  0  0  0  0
   -4.9895    2.7762    0.0000 C   0  0  0  0  0  0  0  0  0  0  0  0
   -6.1386    3.7404    0.0000 C   0  0  0  0  0  0  0  0  0  0  0  0
   -5.8781    5.2176    0.0000 O   0  0  0  0  0  0  0  0  0  0  0  0
   -7.0272    6.1818    0.0000 C   0  0  0  0  0  0  0  0  0  0  0  0
   -5.8781    7.1460    0.0000 C   0  0  0  0  0  0  0  0  0  0  0  0
   -4.4686    6.6330    0.0000 O   0  0  0  0  0  0  0  0  0  0  0  0
   -6.1386    8.6232    0.0000 O   0  0  0  0  0  1  0  0  0  0  0  0
   -7.7772    4.8828    0.0000 C   0  0  0  0  0  0  0  0  0  0  0  0
   -9.2772    4.8828    0.0000 C   0  0  0  0  0  0  0  0  0  0  0  0
  -10.0272    3.5837    0.0000 O   0  0  0  0  0  0  0  0  0  0  0  0
  -10.0272    6.1818    0.0000 C   0  0  0  0  0  0  0  0  0  0  0  0
  -11.5272    6.1818    0.0000 O   0  0  0  0  0  0  0  0  0  0  0  0
   -9.2772    7.4809    0.0000 C   0  0  0  0  0  0  0  0  0  0  0  0
  -10.0272    8.7799    0.0000 C   0  0  0  0  0  0  0  0  0  0  0  0
  -11.5272    8.7799    0.0000 O   0  0  0  0  0  0  0  0  0  0  0  0
   -9.2772   10.0789    0.0000 C   0  0  0  0  0  0  0  0  0  0  0  0
  -10.0272   11.3780    0.0000 O   0  0  0  0  0  0  0  0  0  0  0  0
   -7.7772    7.4809    0.0000 O   0  0  0  0  0  0  0  0  0  0  0  0
   -7.5481    3.2274    0.0000 C   0  0  0  0  0  0  0  0  0  0  0  0
   -8.6972    4.1916    0.0000 O   0  0  0  0  0  0  0  0  0  0  0  0
   -7.8086    1.7502    0.0000 C   0  0  0  0  0  0  0  0  0  0  0  0
   -9.2181    1.2372    0.0000 C   0  0  0  0  0  0  0  0  0  0  0  0
  -10.3672    2.2013    0.0000 O   0  0  0  0  0  0  0  0  0  0  0  0
   -9.4786   -0.2401    0.0000 C   0  0  0  0  0  0  0  0  0  0  0  0
  -10.8882   -0.7531    0.0000 O   0  0  0  0  0  0  0  0  0  0  0  0
   -6.6595    0.7860    0.0000 O   0  0  0  0  0  0  0  0  0  0  0  0
   -0.7500    1.2990    0.0000 C   0  0  0  0  0  0  0  0  0  0  0  0
   -1.5000    2.5981    0.0000 O   0  0  0  0  0  0  0  0  0  0  0  0
   -0.7500    3.8971    0.0000 P   0  0  0  0  0  0  0  0  0  0  0  0
   -2.0490    4.6471    0.0000 O   0  0  0  0  0  0  0  0  0  0  0  0
    0.5490    3.1471    0.0000 O   0  0  0  0  0  1  0  0  0  0  0  0
    0.0000    5.1962    0.0000 O   0  0  0  0  0  1  0  0  0  0  0  0
    0.7500    1.2990    0.0000 C   0  0  0  0  0  0  0  0  0  0  0  0
    1.5000    2.5981    0.0000 O   0  0  0  0  0  0  0  0  0  0  0  0
    3.0000    2.5981    0.0000 C   0  0  0  0  0  0  0  0  0  0  0  0
    3.7500    1.2990    0.0000 O   0  0  0  0  0  0  0  0  0  0  0  0
    3.7500    3.8971    0.0000 C   0  0  0  0  0  0  0  0  0  0  0  0
    5.2500    3.8971    0.0000 C   0  0  0  0  0  0  0  0  0  0  0  0
    6.0000    5.1962    0.0000 R   0  0  0  0  0  0  0  0  0  0  0  0
    6.0000    2.5981    0.0000 O   0  0  0  0  0  0  0  0  0  0  0  0
  2  1  1  1
  2  3  1  0
  2  4  1  0
  4  5  1  0
  5  6  2  0
  5  7  1  0
  8  7  1  1
  8  9  1  0
  9 10  1  6
 10 11  1  0
 12 11  1  1
 12 13  1  0
 13 14  1  0
 14 15  1  6
 15 16  1  0
 16 17  2  0
 16 18  1  0
 16 19  1  0
 14 20  1  0
 20 21  1  6
 21 22  1  0
 22 23  2  0
 22 24  1  0
 24 25  1  0
 25 26  1  1
 25 27  1  0
 20 28  1  0
 28 29  1  1
 29 30  1  0
 30 31  2  0
 30 32  1  0
 32 33  1  0
 33 34  1  1
 33 35  1  0
 28 36  1  0
 36 37  1  6
  9 38  1  0
 38 39  1  0
 39 40  1  6
 40 41  1  0
 42 41  1  1
 42 43  1  0
 43 44  2  0
 43 45  1  0
 42 46  1  0
 46 47  1  0
 47 48  1  6
 49 48  1  6
 49 50  1  0
 50 51  2  0
 50 52  1  0
 49 53  1  0
 53 54  1  0
 54 55  1  1
 54 56  1  0
 56 57  1  1
 56 58  1  0
 58 59  1  0
 59 60  1  6
 59 61  1  0
 61 62  1  0
 58 63  1  1
 47 64  1  0
 64 65  1  6
 64 66  1  0
 66 67  1  0
 67 68  1  1
 67 69  1  0
 69 70  1  0
 66 71  1  6
 39 72  1  0
 72 73  1  1
 73 74  1  0
 74 75  2  0
 74 76  1  0
 74 77  1  0
 72 78  1  0
 78 79  1  6
 79 80  1  0
 80 81  2  0
 80 82  1  0
 82 83  1  0
 83 84  1  1
 83 85  1  0
 78  8  1  0
 36 12  1  0
 71 42  1  0
 63 49  1  0
M  CHG  6  18  -1  19  -1  45  -1  52  -1  76  -1  77  -1
M  END
