
     RDKit          2D

 39 42  0  0  0  0  0  0  0  0999 V2000
   -2.9499    4.2246    0.0000 N   0  0  0  0  0  0  0  0  0  0  0  0
   -1.8351    3.2209    0.0000 C   0  0  0  0  0  0  0  0  0  0  0  0
   -2.1470    1.7537    0.0000 N   0  0  0  0  0  0  0  0  0  0  0  0
   -1.0323    0.7500    0.0000 C   0  0  0  0  0  0  0  0  0  0  0  0
    0.3943    1.2135    0.0000 C   0  0  0  0  0  0  0  0  0  0  0  0
    1.2760    0.0000    0.0000 N   0  0  0  0  0  0  0  0  0  0  0  0
    0.3943   -1.2135    0.0000 C   0  0  0  0  0  0  0  0  0  0  0  0
   -1.0323   -0.7500    0.0000 N   0  0  0  0  0  0  0  0  0  0  0  0
   -2.2458   -1.6317    0.0000 C   0  0  0  0  0  0  0  0  0  0  0  0
   -2.2458   -3.1317    0.0000 O   0  0  0  0  0  0  0  0  0  0  0  0
   -3.6724   -3.5952    0.0000 C   0  0  0  0  0  0  0  0  0  0  0  0
   -4.1359   -5.0218    0.0000 C   0  0  0  0  0  0  0  0  0  0  0  0
   -5.6031   -5.3337    0.0000 O   0  0  0  0  0  0  0  0  0  0  0  0
   -6.0667   -6.7602    0.0000 P   0  0  0  0  0  0  0  0  0  0  0  0
   -4.6401   -7.2238    0.0000 O   0  0  0  0  0  0  0  0  0  0  0  0
   -7.4933   -6.2967    0.0000 O   0  0  0  0  0  1  0  0  0  0  0  0
   -6.5302   -8.1868    0.0000 O   0  0  0  0  0  0  0  0  0  0  0  0
   -5.5265   -9.3015    0.0000 P   0  0  0  0  0  0  0  0  0  0  0  0
   -6.6412  -10.3052    0.0000 O   0  0  0  0  0  0  0  0  0  0  0  0
   -4.4118   -8.2978    0.0000 O   0  0  0  0  0  1  0  0  0  0  0  0
   -4.5228  -10.4163    0.0000 O   0  0  0  0  0  0  0  0  0  0  0  0
   -3.0556  -10.1044    0.0000 C   0  0  0  0  0  0  0  0  0  0  0  0
   -2.0519  -11.2191    0.0000 O   0  0  0  0  0  0  0  0  0  0  0  0
   -0.5847  -10.9072    0.0000 C   0  0  0  0  0  0  0  0  0  0  0  0
    0.4190  -12.0220    0.0000 C   0  0  0  0  0  0  0  0  0  0  0  0
   -0.0445  -13.4485    0.0000 O   0  0  0  0  0  0  0  0  0  0  0  0
   -0.1211   -9.4807    0.0000 C   0  0  0  0  0  0  0  0  0  0  0  0
    1.3461   -9.1688    0.0000 O   0  0  0  0  0  0  0  0  0  0  0  0
   -1.1248   -8.3659    0.0000 C   0  0  0  0  0  0  0  0  0  0  0  0
   -0.6613   -6.9394    0.0000 O   0  0  0  0  0  0  0  0  0  0  0  0
   -2.5921   -8.6778    0.0000 C   0  0  0  0  0  0  0  0  0  0  0  0
   -3.5958   -7.5631    0.0000 O   0  0  0  0  0  0  0  0  0  0  0  0
   -4.5541   -2.3817    0.0000 C   0  0  0  0  0  0  0  0  0  0  0  0
   -6.0541   -2.3817    0.0000 O   0  0  0  0  0  0  0  0  0  0  0  0
   -3.6724   -1.1682    0.0000 C   0  0  0  0  0  0  0  0  0  0  0  0
   -4.1359    0.2584    0.0000 O   0  0  0  0  0  0  0  0  0  0  0  0
    0.7062    2.6807    0.0000 C   0  0  0  0  0  0  0  0  0  0  0  0
    2.1328    3.1443    0.0000 O   0  0  0  0  0  0  0  0  0  0  0  0
   -0.4086    3.6844    0.0000 N   0  0  0  0  0  0  0  0  0  0  0  0
  1  2  1  0
  2  3  2  0
  3  4  1  0
  4  5  2  0
  5  6  1  0
  6  7  2  0
  7  8  1  0
  9  8  1  6
  9 10  1  0
 10 11  1  0
 11 12  1  6
 12 13  1  0
 13 14  1  0
 14 15  2  0
 14 16  1  0
 14 17  1  0
 17 18  1  0
 18 19  2  0
 18 20  1  0
 18 21  1  0
 22 21  1  6
 22 23  1  0
 23 24  1  0
 24 25  1  1
 25 26  1  0
 24 27  1  0
 27 28  1  6
 27 29  1  0
 29 30  1  1
 29 31  1  0
 31 32  1  6
 11 33  1  0
 33 34  1  1
 33 35  1  0
 35 36  1  1
  5 37  1  0
 37 38  2  0
 37 39  1  0
 39  2  1  0
  8  4  1  0
 35  9  1  0
 31 22  1  0
M  CHG  2  16  -1  20  -1
M  END
