
     RDKit          2D

 19 19  0  0  0  0  0  0  0  0999 V2000
    3.5260   -1.2990    0.0000 R   0  0  0  0  0  0  0  0  0  0  0  0
    2.7760    0.0000    0.0000 O   0  0  0  0  0  0  0  0  0  0  0  0
    1.2760    0.0000    0.0000 C   0  0  0  0  0  0  0  0  0  0  0  0
    0.3943    1.2135    0.0000 C   0  0  0  0  0  0  0  0  0  0  0  0
    0.8578    2.6401    0.0000 O   0  0  0  0  0  0  0  0  0  0  0  0
   -1.0323    0.7500    0.0000 C   0  0  0  0  0  0  0  0  0  0  0  0
   -2.2458    1.6317    0.0000 R   0  0  0  0  0  0  0  0  0  0  0  0
   -1.0323   -0.7500    0.0000 O   0  0  0  0  0  0  0  0  0  0  0  0
    0.3943   -1.2135    0.0000 C   0  0  0  0  0  0  0  0  0  0  0  0
    0.8578   -2.6401    0.0000 C   0  0  0  0  0  0  0  0  0  0  0  0
   -0.1459   -3.7548    0.0000 O   0  0  0  0  0  0  0  0  0  0  0  0
    0.3177   -5.1814    0.0000 P   0  0  0  0  0  0  0  0  0  0  0  0
    1.7442   -4.7179    0.0000 O   0  0  0  0  0  0  0  0  0  0  0  0
   -1.1089   -5.6449    0.0000 O   0  0  0  0  0  1  0  0  0  0  0  0
    0.7812   -6.6080    0.0000 O   0  0  0  0  0  0  0  0  0  0  0  0
    2.2484   -6.9199    0.0000 P   0  0  0  0  0  0  0  0  0  0  0  0
    1.9365   -8.3871    0.0000 O   0  0  0  0  0  0  0  0  0  0  0  0
    2.5603   -5.4526    0.0000 O   0  0  0  0  0  1  0  0  0  0  0  0
    3.7156   -7.2317    0.0000 O   0  0  0  0  0  1  0  0  0  0  0  0
  1  2  1  0
  3  2  1  6
  3  4  1  0
  4  5  1  6
  4  6  1  0
  6  7  1  1
  6  8  1  0
  8  9  1  0
  9 10  1  1
 10 11  1  0
 11 12  1  0
 12 13  2  0
 12 14  1  0
 12 15  1  0
 15 16  1  0
 16 17  2  0
 16 18  1  0
 16 19  1  0
  9  3  1  0
M  CHG  3  14  -1  18  -1  19  -1
M  END
