
     RDKit          2D

 48 51  0  0  0  0  0  0  0  0999 V2000
   23.4827   -1.7036    0.0000 R   0  0  0  0  0  0  0  0  0  0  0  0
   22.3680   -2.7073    0.0000 N   0  0  0  0  0  0  0  0  0  0  0  0
   22.6799   -4.1746    0.0000 C   0  0  0  0  0  0  0  0  0  0  0  0
   21.5651   -5.1782    0.0000 C   0  0  0  0  0  0  0  0  0  0  0  0
   20.1386   -4.7147    0.0000 C   0  0  0  0  0  0  0  0  0  0  0  0
   19.0238   -5.7184    0.0000 C   0  0  0  0  0  0  0  0  0  0  0  0
   17.5973   -5.2549    0.0000 N   0  0  0  0  0  0  0  0  0  0  0  0
   16.4825   -6.2586    0.0000 C   0  0  0  0  0  0  0  0  0  0  0  0
   16.7944   -7.7258    0.0000 N   0  0  0  0  0  4  0  0  0  0  0  0
   15.0560   -5.7951    0.0000 N   0  0  0  0  0  0  0  0  0  0  0  0
   13.9412   -6.7988    0.0000 C   0  0  0  0  0  0  0  0  0  0  0  0
   12.4740   -6.4869    0.0000 O   0  0  0  0  0  0  0  0  0  0  0  0
   11.7240   -7.7859    0.0000 C   0  0  0  0  0  0  0  0  0  0  0  0
   10.2322   -7.9427    0.0000 C   0  0  0  0  0  0  0  0  0  0  0  0
    9.6221   -9.3130    0.0000 O   0  0  0  0  0  0  0  0  0  0  0  0
    8.1303   -9.4698    0.0000 P   0  0  0  0  0  0  0  0  0  0  0  0
    8.2871  -10.9616    0.0000 O   0  0  0  0  0  0  0  0  0  0  0  0
    7.9736   -7.9781    0.0000 O   0  0  0  0  0  1  0  0  0  0  0  0
    6.6386   -9.6266    0.0000 O   0  0  0  0  0  0  0  0  0  0  0  0
    5.7569   -8.4131    0.0000 P   0  0  0  0  0  0  0  0  0  0  0  0
    6.9704   -7.5314    0.0000 O   0  0  0  0  0  0  0  0  0  0  0  0
    4.5434   -9.2948    0.0000 O   0  0  0  0  0  1  0  0  0  0  0  0
    4.8752   -7.1996    0.0000 O   0  0  0  0  0  0  0  0  0  0  0  0
    5.4853   -5.8293    0.0000 C   0  0  0  0  0  0  0  0  0  0  0  0
    4.6036   -4.6157    0.0000 C   0  0  0  0  0  0  0  0  0  0  0  0
    3.1036   -4.6157    0.0000 O   0  0  0  0  0  0  0  0  0  0  0  0
    2.6401   -3.1891    0.0000 C   0  0  0  0  0  0  0  0  0  0  0  0
    1.2135   -2.7256    0.0000 N   0  0  0  0  0  0  0  0  0  0  0  0
   -0.0000   -3.6073    0.0000 C   0  0  0  0  0  0  0  0  0  0  0  0
   -1.2135   -2.7256    0.0000 N   0  0  0  0  0  0  0  0  0  0  0  0
   -0.7500   -1.2990    0.0000 C   0  0  0  0  0  0  0  0  0  0  0  0
    0.7500   -1.2990    0.0000 C   0  0  0  0  0  0  0  0  0  0  0  0
    1.5000    0.0000    0.0000 N   0  0  0  0  0  0  0  0  0  0  0  0
    0.7500    1.2990    0.0000 C   0  0  0  0  0  0  0  0  0  0  0  0
   -0.7500    1.2990    0.0000 N   0  0  0  0  0  0  0  0  0  0  0  0
   -1.5000    0.0000    0.0000 C   0  0  0  0  0  0  0  0  0  0  0  0
   -3.0000    0.0000    0.0000 N   0  0  0  0  0  0  0  0  0  0  0  0
    3.8536   -2.3075    0.0000 C   0  0  0  0  0  0  0  0  0  0  0  0
    3.8536   -0.8075    0.0000 O   0  0  0  0  0  0  0  0  0  0  0  0
    5.0672   -3.1891    0.0000 C   0  0  0  0  0  0  0  0  0  0  0  0
    6.4937   -2.7256    0.0000 O   0  0  0  0  0  0  0  0  0  0  0  0
   12.7277   -8.9006    0.0000 C   0  0  0  0  0  0  0  0  0  0  0  0
   12.4158  -10.3679    0.0000 O   0  0  0  0  0  0  0  0  0  0  0  0
   14.0980   -8.2905    0.0000 C   0  0  0  0  0  0  0  0  0  0  0  0
   15.3971   -9.0405    0.0000 O   0  0  0  0  0  0  0  0  0  0  0  0
   24.1064   -4.6381    0.0000 C   0  0  0  0  0  0  0  0  0  0  0  0
   25.2212   -3.6344    0.0000 R   0  0  0  0  0  0  0  0  0  0  0  0
   24.4183   -6.1053    0.0000 O   0  0  0  0  0  0  0  0  0  0  0  0
  1  2  1  0
  2  3  1  0
  3  4  1  6
  4  5  1  0
  5  6  1  0
  6  7  1  0
  7  8  1  0
  8  9  2  0
  8 10  1  0
 10 11  1  0
 11 12  1  0
 12 13  1  0
 13 14  1  1
 14 15  1  0
 15 16  1  0
 16 17  2  0
 16 18  1  0
 16 19  1  0
 19 20  1  0
 20 21  2  0
 20 22  1  0
 20 23  1  0
 23 24  1  0
 25 24  1  1
 25 26  1  0
 26 27  1  0
 27 28  1  1
 28 29  1  0
 29 30  2  0
 30 31  1  0
 31 32  2  0
 32 33  1  0
 33 34  2  0
 34 35  1  0
 35 36  2  0
 36 37  1  0
 27 38  1  0
 38 39  1  6
 38 40  1  0
 40 41  1  6
 13 42  1  0
 42 43  1  6
 42 44  1  0
 44 45  1  6
  3 46  1  0
 46 47  1  0
 46 48  2  0
 44 11  1  0
 40 25  1  0
 32 28  1  0
 36 31  1  0
M  CHG  3   9   1  18  -1  22  -1
M  END
