
     RDKit          2D

 62 63  0  0  0  0  0  0  0  0999 V2000
  -39.7500  -32.4760    0.0000 C   0  0  0  0  0  0  0  0  0  0  0  0
  -39.0000  -31.1769    0.0000 C   0  0  0  0  0  0  0  0  0  0  0  0
  -39.7500  -29.8779    0.0000 C   0  0  0  0  0  0  0  0  0  0  0  0
  -37.5000  -31.1769    0.0000 C   0  0  0  0  0  0  0  0  0  0  0  0
  -36.7500  -29.8779    0.0000 C   0  0  0  0  0  0  0  0  0  0  0  0
  -35.2500  -29.8779    0.0000 C   0  0  0  0  0  0  0  0  0  0  0  0
  -34.5000  -28.5788    0.0000 C   0  0  0  0  0  0  0  0  0  0  0  0
  -35.2500  -27.2798    0.0000 C   0  0  0  0  0  0  0  0  0  0  0  0
  -33.0000  -28.5788    0.0000 C   0  0  0  0  0  0  0  0  0  0  0  0
  -32.2500  -27.2798    0.0000 C   0  0  0  0  0  0  0  0  0  0  0  0
  -30.7500  -27.2798    0.0000 C   0  0  0  0  0  0  0  0  0  0  0  0
  -30.0000  -25.9808    0.0000 C   0  0  0  0  0  0  0  0  0  0  0  0
  -30.7500  -24.6817    0.0000 C   0  0  0  0  0  0  0  0  0  0  0  0
  -28.5000  -25.9808    0.0000 C   0  0  0  0  0  0  0  0  0  0  0  0
  -27.7500  -24.6817    0.0000 C   0  0  0  0  0  0  0  0  0  0  0  0
  -26.2500  -24.6817    0.0000 C   0  0  0  0  0  0  0  0  0  0  0  0
  -25.5000  -23.3827    0.0000 C   0  0  0  0  0  0  0  0  0  0  0  0
  -26.2500  -22.0836    0.0000 C   0  0  0  0  0  0  0  0  0  0  0  0
  -24.0000  -23.3827    0.0000 C   0  0  0  0  0  0  0  0  0  0  0  0
  -23.2500  -22.0836    0.0000 C   0  0  0  0  0  0  0  0  0  0  0  0
  -21.7500  -22.0836    0.0000 C   0  0  0  0  0  0  0  0  0  0  0  0
  -21.0000  -20.7846    0.0000 C   0  0  0  0  0  0  0  0  0  0  0  0
  -21.7500  -19.4856    0.0000 C   0  0  0  0  0  0  0  0  0  0  0  0
  -19.5000  -20.7846    0.0000 C   0  0  0  0  0  0  0  0  0  0  0  0
  -18.7500  -19.4856    0.0000 C   0  0  0  0  0  0  0  0  0  0  0  0
  -17.2500  -19.4856    0.0000 C   0  0  0  0  0  0  0  0  0  0  0  0
  -16.5000  -18.1865    0.0000 C   0  0  0  0  0  0  0  0  0  0  0  0
  -17.2500  -16.8875    0.0000 C   0  0  0  0  0  0  0  0  0  0  0  0
  -15.0000  -18.1865    0.0000 C   0  0  0  0  0  0  0  0  0  0  0  0
  -14.2500  -16.8875    0.0000 C   0  0  0  0  0  0  0  0  0  0  0  0
  -12.7500  -16.8875    0.0000 C   0  0  0  0  0  0  0  0  0  0  0  0
  -12.0000  -15.5885    0.0000 C   0  0  0  0  0  0  0  0  0  0  0  0
  -12.7500  -14.2894    0.0000 C   0  0  0  0  0  0  0  0  0  0  0  0
  -10.5000  -15.5885    0.0000 C   0  0  0  0  0  0  0  0  0  0  0  0
   -9.7500  -14.2894    0.0000 C   0  0  0  0  0  0  0  0  0  0  0  0
   -8.2500  -14.2894    0.0000 C   0  0  0  0  0  0  0  0  0  0  0  0
   -7.5000  -12.9904    0.0000 C   0  0  0  0  0  0  0  0  0  0  0  0
   -8.2500  -11.6913    0.0000 C   0  0  0  0  0  0  0  0  0  0  0  0
   -6.0000  -12.9904    0.0000 C   0  0  0  0  0  0  0  0  0  0  0  0
   -5.2500  -11.6913    0.0000 C   0  0  0  0  0  0  0  0  0  0  0  0
   -3.7500  -11.6913    0.0000 C   0  0  0  0  0  0  0  0  0  0  0  0
   -3.0000  -10.3923    0.0000 C   0  0  0  0  0  0  0  0  0  0  0  0
   -3.7500   -9.0933    0.0000 C   0  0  0  0  0  0  0  0  0  0  0  0
   -1.5000  -10.3923    0.0000 C   0  0  0  0  0  0  0  0  0  0  0  0
   -0.7500   -9.0933    0.0000 C   0  0  0  0  0  0  0  0  0  0  0  0
    0.7500   -9.0933    0.0000 C   0  0  0  0  0  0  0  0  0  0  0  0
    1.5000   -7.7942    0.0000 C   0  0  0  0  0  0  0  0  0  0  0  0
    3.0000   -7.7942    0.0000 C   0  0  0  0  0  0  0  0  0  0  0  0
    0.7500   -6.4952    0.0000 C   0  0  0  0  0  0  0  0  0  0  0  0
    1.5000   -5.1962    0.0000 C   0  0  0  0  0  0  0  0  0  0  0  0
    0.7500   -3.8971    0.0000 C   0  0  0  0  0  0  0  0  0  0  0  0
    1.5000   -2.5981    0.0000 C   0  0  0  0  0  0  0  0  0  0  0  0
    3.0000   -2.5981    0.0000 O   0  0  0  0  0  0  0  0  0  0  0  0
    0.7500   -1.2990    0.0000 C   0  0  0  0  0  0  0  0  0  0  0  0
    1.5000    0.0000    0.0000 C   0  0  0  0  0  0  0  0  0  0  0  0
    0.7500    1.2990    0.0000 C   0  0  0  0  0  0  0  0  0  0  0  0
   -0.7500    1.2990    0.0000 C   0  0  0  0  0  0  0  0  0  0  0  0
   -1.5000    0.0000    0.0000 C   0  0  0  0  0  0  0  0  0  0  0  0
   -0.7500   -1.2990    0.0000 C   0  0  0  0  0  0  0  0  0  0  0  0
   -1.5000   -2.5981    0.0000 C   0  0  0  0  0  0  0  0  0  0  0  0
   -3.0000   -2.5981    0.0000 O   0  0  0  0  0  0  0  0  0  0  0  0
   -0.7500   -3.8971    0.0000 C   0  0  0  0  0  0  0  0  0  0  0  0
  1  2  1  0
  2  3  1  0
  2  4  2  0
  4  5  1  0
  5  6  1  0
  6  7  1  0
  7  8  1  0
  7  9  2  0
  9 10  1  0
 10 11  1  0
 11 12  1  0
 12 13  1  0
 12 14  2  0
 14 15  1  0
 15 16  1  0
 16 17  1  0
 17 18  1  0
 17 19  2  0
 19 20  1  0
 20 21  1  0
 21 22  1  0
 22 23  1  0
 22 24  2  0
 24 25  1  0
 25 26  1  0
 26 27  1  0
 27 28  1  0
 27 29  2  0
 29 30  1  0
 30 31  1  0
 31 32  1  0
 32 33  1  0
 32 34  2  0
 34 35  1  0
 35 36  1  0
 36 37  1  0
 37 38  1  0
 37 39  2  0
 39 40  1  0
 40 41  1  0
 41 42  1  0
 42 43  1  0
 42 44  2  0
 44 45  1  0
 45 46  1  0
 46 47  1  0
 47 48  1  0
 47 49  2  0
 49 50  1  0
 50 51  1  0
 51 52  2  0
 52 53  1  0
 52 54  1  0
 54 55  2  0
 55 56  1  0
 56 57  2  0
 57 58  1  0
 58 59  2  0
 59 60  1  0
 60 61  1  0
 60 62  2  0
 62 51  1  0
 59 54  1  0
M  END
