
     RDKit          2D

171176  0  0  0  0  0  0  0  0999 V2000
    1.5000   -0.0000    0.0000 C   0  0  0  0  0  0  0  0  0  0  0  0
    3.0000   -0.0000    0.0000 C   0  0  0  0  0  0  0  0  0  0  0  0
    3.7500    1.2990    0.0000 O   0  0  0  0  0  0  0  0  0  0  0  0
    3.7500   -1.2990    0.0000 C   0  0  0  0  0  0  0  0  0  0  0  0
    5.2500   -1.2990    0.0000 O   0  0  0  0  0  0  0  0  0  0  0  0
    0.7500   -1.2990    0.0000 O   0  0  0  0  0  0  0  0  0  0  0  0
   -0.7500   -1.2990    0.0000 C   0  0  0  0  0  0  0  0  0  0  0  0
   -2.1595   -1.8121    0.0000 O   0  0  0  0  0  0  0  0  0  0  0  0
   -3.3086   -0.8479    0.0000 C   0  0  0  0  0  0  0  0  0  0  0  0
   -3.0481    0.6293    0.0000 C   0  0  0  0  0  0  0  0  0  0  0  0
   -4.1972    1.5935    0.0000 C   0  0  0  0  0  0  0  0  0  0  0  0
   -3.0481    2.5577    0.0000 O   0  0  0  0  0  0  0  0  0  0  0  0
   -3.3086    4.0349    0.0000 C   0  0  0  0  0  0  0  0  0  0  0  0
   -2.1595    4.9991    0.0000 C   0  0  0  0  0  0  0  0  0  0  0  0
   -0.7500    4.4861    0.0000 O   0  0  0  0  0  0  0  0  0  0  0  0
    0.3991    5.4502    0.0000 C   0  0  0  0  0  0  0  0  0  0  0  0
    1.8086    4.9372    0.0000 O   0  0  0  0  0  0  0  0  0  0  0  0
    2.9577    5.9014    0.0000 C   0  0  0  0  0  0  0  0  0  0  0  0
    4.3672    5.3884    0.0000 C   0  0  0  0  0  0  0  0  0  0  0  0
    4.6277    3.9111    0.0000 O   0  0  0  0  0  0  0  0  0  0  0  0
    6.0372    3.3981    0.0000 C   0  0  0  0  0  0  0  0  0  0  0  0
    6.2977    1.9209    0.0000 O   0  0  0  0  0  0  0  0  0  0  0  0
    7.7072    1.4079    0.0000 P   0  0  0  0  0  0  0  0  0  0  0  0
    8.2203    2.8174    0.0000 O   0  0  0  0  0  0  0  0  0  0  0  0
    7.1942   -0.0017    0.0000 O   0  0  0  0  0  1  0  0  0  0  0  0
    9.1168    0.8948    0.0000 O   0  0  0  0  0  0  0  0  0  0  0  0
    9.3772   -0.5824    0.0000 C   0  0  0  0  0  0  0  0  0  0  0  0
    8.2282   -1.5466    0.0000 O   0  0  0  0  0  0  0  0  0  0  0  0
    8.4887   -3.0238    0.0000 C   0  0  0  0  0  0  0  0  0  0  0  0
    9.8982   -3.5368    0.0000 C   0  0  0  0  0  0  0  0  0  0  0  0
   10.1587   -5.0140    0.0000 N   0  0  0  0  0  4  0  0  0  0  0  0
   11.0473   -2.5726    0.0000 C   0  0  0  0  0  0  0  0  0  0  0  0
   12.4568   -3.0856    0.0000 O   0  0  0  0  0  0  0  0  0  0  0  0
   10.7868   -1.0954    0.0000 C   0  0  0  0  0  0  0  0  0  0  0  0
   11.9359   -0.1312    0.0000 O   0  0  0  0  0  0  0  0  0  0  0  0
    7.1863    4.3623    0.0000 C   0  0  0  0  0  0  0  0  0  0  0  0
    8.5958    3.8493    0.0000 N   0  0  0  0  0  0  0  0  0  0  0  0
    9.7449    4.8134    0.0000 C   0  0  0  0  0  0  0  0  0  0  0  0
    9.4844    6.2907    0.0000 O   0  0  0  0  0  0  0  0  0  0  0  0
   11.1544    4.3004    0.0000 C   0  0  0  0  0  0  0  0  0  0  0  0
   12.3035    5.2646    0.0000 C   0  0  0  0  0  0  0  0  0  0  0  0
   12.0430    6.7418    0.0000 O   0  0  0  0  0  0  0  0  0  0  0  0
   13.7130    4.7516    0.0000 C   0  0  0  0  0  0  0  0  0  0  0  0
   14.8621    5.7157    0.0000 C   0  0  0  0  0  0  0  0  0  0  0  0
   16.2716    5.2027    0.0000 C   0  0  0  0  0  0  0  0  0  0  0  0
   17.4207    6.1669    0.0000 C   0  0  0  0  0  0  0  0  0  0  0  0
   18.8303    5.6539    0.0000 C   0  0  0  0  0  0  0  0  0  0  0  0
   19.9793    6.6180    0.0000 C   0  0  0  0  0  0  0  0  0  0  0  0
   21.3889    6.1050    0.0000 C   0  0  0  0  0  0  0  0  0  0  0  0
   22.5379    7.0692    0.0000 C   0  0  0  0  0  0  0  0  0  0  0  0
   23.9475    6.5562    0.0000 C   0  0  0  0  0  0  0  0  0  0  0  0
   25.0965    7.5204    0.0000 C   0  0  0  0  0  0  0  0  0  0  0  0
   26.5061    7.0073    0.0000 C   0  0  0  0  0  0  0  0  0  0  0  0
    6.9258    5.8395    0.0000 C   0  0  0  0  0  0  0  0  0  0  0  0
    8.0749    6.8037    0.0000 O   0  0  0  0  0  0  0  0  0  0  0  0
    7.8144    8.2809    0.0000 C   0  0  0  0  0  0  0  0  0  0  0  0
    6.4049    8.7939    0.0000 O   0  0  0  0  0  0  0  0  0  0  0  0
    8.9635    9.2451    0.0000 C   0  0  0  0  0  0  0  0  0  0  0  0
    8.7030   10.7223    0.0000 C   0  0  0  0  0  0  0  0  0  0  0  0
    7.2935   11.2353    0.0000 O   0  0  0  0  0  0  0  0  0  0  0  0
    9.8521   11.6865    0.0000 C   0  0  0  0  0  0  0  0  0  0  0  0
    9.5916   13.1637    0.0000 C   0  0  0  0  0  0  0  0  0  0  0  0
   10.7407   14.1279    0.0000 C   0  0  0  0  0  0  0  0  0  0  0  0
   10.4802   15.6051    0.0000 C   0  0  0  0  0  0  0  0  0  0  0  0
   11.6293   16.5693    0.0000 C   0  0  0  0  0  0  0  0  0  0  0  0
   11.3688   18.0465    0.0000 C   0  0  0  0  0  0  0  0  0  0  0  0
   12.5179   19.0107    0.0000 C   0  0  0  0  0  0  0  0  0  0  0  0
   12.2574   20.4879    0.0000 C   0  0  0  0  0  0  0  0  0  0  0  0
   13.4064   21.4520    0.0000 C   0  0  0  0  0  0  0  0  0  0  0  0
   13.1460   22.9293    0.0000 C   0  0  0  0  0  0  0  0  0  0  0  0
   14.2950   23.8934    0.0000 C   0  0  0  0  0  0  0  0  0  0  0  0
    5.5163    6.3525    0.0000 C   0  0  0  0  0  0  0  0  0  0  0  0
    5.2558    7.8297    0.0000 O   0  0  0  0  0  0  0  0  0  0  0  0
    0.1386    6.9274    0.0000 C   0  0  0  0  0  0  0  0  0  0  0  0
    1.2877    7.8916    0.0000 N   0  0  0  0  0  0  0  0  0  0  0  0
    1.0272    9.3688    0.0000 C   0  0  0  0  0  0  0  0  0  0  0  0
   -0.3824    9.8819    0.0000 O   0  0  0  0  0  0  0  0  0  0  0  0
    2.1763   10.3330    0.0000 C   0  0  0  0  0  0  0  0  0  0  0  0
    1.9158   11.8102    0.0000 C   0  0  0  0  0  0  0  0  0  0  0  0
    3.0648   12.7744    0.0000 C   0  0  0  0  0  0  0  0  0  0  0  0
    2.8044   14.2516    0.0000 C   0  0  0  0  0  0  0  0  0  0  0  0
    3.9534   15.2158    0.0000 C   0  0  0  0  0  0  0  0  0  0  0  0
    3.6930   16.6930    0.0000 C   0  0  0  0  0  0  0  0  0  0  0  0
    4.8420   17.6572    0.0000 C   0  0  0  0  0  0  0  0  0  0  0  0
    4.5816   19.1344    0.0000 C   0  0  0  0  0  0  0  0  0  0  0  0
    5.7306   20.0986    0.0000 C   0  0  0  0  0  0  0  0  0  0  0  0
    5.4702   21.5758    0.0000 C   0  0  0  0  0  0  0  0  0  0  0  0
    6.6192   22.5400    0.0000 C   0  0  0  0  0  0  0  0  0  0  0  0
    6.3588   24.0172    0.0000 C   0  0  0  0  0  0  0  0  0  0  0  0
    7.5078   24.9814    0.0000 C   0  0  0  0  0  0  0  0  0  0  0  0
    0.5062   12.3233    0.0000 O   0  0  0  0  0  0  0  0  0  0  0  0
    0.2458   13.8005    0.0000 C   0  0  0  0  0  0  0  0  0  0  0  0
    1.3948   14.7647    0.0000 O   0  0  0  0  0  0  0  0  0  0  0  0
   -1.1638   14.3135    0.0000 C   0  0  0  0  0  0  0  0  0  0  0  0
   -1.4242   15.7907    0.0000 C   0  0  0  0  0  0  0  0  0  0  0  0
   -2.8338   16.3037    0.0000 C   0  0  0  0  0  0  0  0  0  0  0  0
   -3.0943   17.7810    0.0000 C   0  0  0  0  0  0  0  0  0  0  0  0
   -4.5038   18.2940    0.0000 C   0  0  0  0  0  0  0  0  0  0  0  0
   -4.7643   19.7712    0.0000 C   0  0  0  0  0  0  0  0  0  0  0  0
   -6.1738   20.2842    0.0000 C   0  0  0  0  0  0  0  0  0  0  0  0
   -6.4343   21.7614    0.0000 C   0  0  0  0  0  0  0  0  0  0  0  0
   -7.8438   22.2745    0.0000 C   0  0  0  0  0  0  0  0  0  0  0  0
   -8.1043   23.7517    0.0000 C   0  0  0  0  0  0  0  0  0  0  0  0
   -9.5138   24.2647    0.0000 C   0  0  0  0  0  0  0  0  0  0  0  0
   -1.2709    7.4405    0.0000 C   0  0  0  0  0  0  0  0  0  0  0  0
   -1.5314    8.9177    0.0000 O   0  0  0  0  0  0  0  0  0  0  0  0
   -2.9410    9.4307    0.0000 C   0  0  0  0  0  0  0  0  0  0  0  0
   -4.0900    8.4665    0.0000 O   0  0  0  0  0  0  0  0  0  0  0  0
   -3.2014   10.9079    0.0000 C   0  0  0  0  0  0  0  0  0  0  0  0
   -4.6110   11.4210    0.0000 C   0  0  0  0  0  0  0  0  0  0  0  0
   -4.8714   12.8982    0.0000 C   0  0  0  0  0  0  0  0  0  0  0  0
   -6.2810   13.4112    0.0000 C   0  0  0  0  0  0  0  0  0  0  0  0
   -6.5415   14.8884    0.0000 C   0  0  0  0  0  0  0  0  0  0  0  0
   -7.9510   15.4014    0.0000 C   0  0  0  0  0  0  0  0  0  0  0  0
   -8.2115   16.8787    0.0000 C   0  0  0  0  0  0  0  0  0  0  0  0
   -9.6210   17.3917    0.0000 C   0  0  0  0  0  0  0  0  0  0  0  0
   -9.8815   18.8689    0.0000 C   0  0  0  0  0  0  0  0  0  0  0  0
  -11.2910   19.3819    0.0000 C   0  0  0  0  0  0  0  0  0  0  0  0
  -11.5515   20.8591    0.0000 C   0  0  0  0  0  0  0  0  0  0  0  0
  -12.9610   21.3722    0.0000 C   0  0  0  0  0  0  0  0  0  0  0  0
  -13.2215   22.8494    0.0000 C   0  0  0  0  0  0  0  0  0  0  0  0
   -5.7600   10.4568    0.0000 O   0  0  0  0  0  0  0  0  0  0  0  0
   -7.1696   10.9698    0.0000 C   0  0  0  0  0  0  0  0  0  0  0  0
   -7.4300   12.4470    0.0000 O   0  0  0  0  0  0  0  0  0  0  0  0
   -8.3186   10.0056    0.0000 C   0  0  0  0  0  0  0  0  0  0  0  0
   -9.7282   10.5187    0.0000 C   0  0  0  0  0  0  0  0  0  0  0  0
  -10.8772    9.5545    0.0000 C   0  0  0  0  0  0  0  0  0  0  0  0
  -12.2868   10.0675    0.0000 C   0  0  0  0  0  0  0  0  0  0  0  0
  -13.4359    9.1033    0.0000 C   0  0  0  0  0  0  0  0  0  0  0  0
  -14.8454    9.6164    0.0000 C   0  0  0  0  0  0  0  0  0  0  0  0
  -15.9945    8.6522    0.0000 C   0  0  0  0  0  0  0  0  0  0  0  0
  -17.4040    9.1652    0.0000 C   0  0  0  0  0  0  0  0  0  0  0  0
  -18.5531    8.2010    0.0000 C   0  0  0  0  0  0  0  0  0  0  0  0
  -19.9626    8.7141    0.0000 C   0  0  0  0  0  0  0  0  0  0  0  0
  -21.1117    7.7499    0.0000 C   0  0  0  0  0  0  0  0  0  0  0  0
  -22.5212    8.2629    0.0000 C   0  0  0  0  0  0  0  0  0  0  0  0
  -23.6703    7.2987    0.0000 C   0  0  0  0  0  0  0  0  0  0  0  0
   -2.4200    6.4763    0.0000 C   0  0  0  0  0  0  0  0  0  0  0  0
   -3.8296    6.9893    0.0000 O   0  0  0  0  0  0  0  0  0  0  0  0
   -4.9786    6.0251    0.0000 P   0  0  0  0  0  0  0  0  0  0  0  0
   -3.8816    5.0022    0.0000 O   0  0  0  0  0  0  0  0  0  0  0  0
   -5.9428    7.1742    0.0000 O   0  0  0  0  0  1  0  0  0  0  0  0
   -6.1277    5.0610    0.0000 O   0  0  0  0  0  0  0  0  0  0  0  0
   -7.5372    5.5740    0.0000 C   0  0  0  0  0  0  0  0  0  0  0  0
   -8.6863    4.6098    0.0000 O   0  0  0  0  0  0  0  0  0  0  0  0
  -10.0958    5.1228    0.0000 C   0  0  0  0  0  0  0  0  0  0  0  0
  -10.3563    6.6001    0.0000 C   0  0  0  0  0  0  0  0  0  0  0  0
  -11.7658    7.1131    0.0000 N   0  0  0  0  0  4  0  0  0  0  0  0
   -9.2072    7.5642    0.0000 C   0  0  0  0  0  0  0  0  0  0  0  0
   -9.4677    9.0414    0.0000 O   0  0  0  0  0  0  0  0  0  0  0  0
   -7.7977    7.0512    0.0000 C   0  0  0  0  0  0  0  0  0  0  0  0
   -6.6486    8.0154    0.0000 O   0  0  0  0  0  0  0  0  0  0  0  0
   -4.9472    2.8925    0.0000 C   0  0  0  0  0  0  0  0  0  0  0  0
   -4.1347    3.9707    0.0000 O   0  0  0  0  0  0  0  0  0  0  0  0
   -6.4472    2.8925    0.0000 O   0  0  0  0  0  1  0  0  0  0  0  0
   -5.6067    1.0805    0.0000 O   0  0  0  0  0  0  0  0  0  0  0  0
   -5.8672   -0.3967    0.0000 C   0  0  0  0  0  0  0  0  0  0  0  0
   -7.2768   -0.9098    0.0000 C   0  0  0  0  0  0  0  0  0  0  0  0
   -7.5372   -2.3870    0.0000 O   0  0  0  0  0  0  0  0  0  0  0  0
   -8.4258    0.0544    0.0000 C   0  0  0  0  0  0  0  0  0  0  0  0
   -9.8354   -0.4586    0.0000 O   0  0  0  0  0  0  0  0  0  0  0  0
   -4.7181   -1.3609    0.0000 C   0  0  0  0  0  0  0  0  0  0  0  0
   -4.9786   -2.8381    0.0000 O   0  0  0  0  0  0  0  0  0  0  0  0
   -0.4895   -2.7762    0.0000 C   0  0  0  0  0  0  0  0  0  0  0  0
    0.9200   -3.2893    0.0000 O   0  0  0  0  0  0  0  0  0  0  0  0
   -1.6386   -3.7404    0.0000 O   0  0  0  0  0  1  0  0  0  0  0  0
   -1.5000   -0.0000    0.0000 C   0  0  0  0  0  0  0  0  0  0  0  0
   -0.7500    1.2990    0.0000 C   0  0  0  0  0  0  0  0  0  0  0  0
   -1.5000    2.5981    0.0000 O   0  0  0  0  0  0  0  0  0  0  0  0
    0.7500    1.2990    0.0000 C   0  0  0  0  0  0  0  0  0  0  0  0
    1.5000    2.5981    0.0000 O   0  0  0  0  0  0  0  0  0  0  0  0
  1  2  1  0
  2  3  1  6
  2  4  1  0
  4  5  1  0
  1  6  1  1
  6  7  1  0
  7  8  1  6
  9  8  1  1
  9 10  1  0
 10 11  1  0
 11 12  1  6
 12 13  1  0
 14 13  1  6
 14 15  1  0
 15 16  1  0
 16 17  1  6
 17 18  1  0
 19 18  1  6
 19 20  1  0
 20 21  1  0
 21 22  1  1
 22 23  1  0
 23 24  2  0
 23 25  1  0
 23 26  1  0
 27 26  1  6
 27 28  1  0
 28 29  1  0
 29 30  1  0
 30 31  1  1
 30 32  1  0
 32 33  1  1
 32 34  1  0
 34 35  1  6
 21 36  1  0
 36 37  1  1
 37 38  1  0
 38 39  2  0
 38 40  1  0
 40 41  1  0
 41 42  1  6
 41 43  1  0
 43 44  1  0
 44 45  1  0
 45 46  1  0
 46 47  1  0
 47 48  1  0
 48 49  1  0
 49 50  1  0
 50 51  1  0
 51 52  1  0
 52 53  1  0
 36 54  1  0
 54 55  1  6
 55 56  1  0
 56 57  2  0
 56 58  1  0
 58 59  1  0
 59 60  1  6
 59 61  1  0
 61 62  1  0
 62 63  1  0
 63 64  1  0
 64 65  1  0
 65 66  1  0
 66 67  1  0
 67 68  1  0
 68 69  1  0
 69 70  1  0
 70 71  1  0
 54 72  1  0
 72 73  1  1
 16 74  1  0
 74 75  1  1
 75 76  1  0
 76 77  2  0
 76 78  1  0
 79 78  1  6
 79 80  1  0
 80 81  1  0
 81 82  1  0
 82 83  1  0
 83 84  1  0
 84 85  1  0
 85 86  1  0
 86 87  1  0
 87 88  1  0
 88 89  1  0
 89 90  1  0
 79 91  1  0
 91 92  1  0
 92 93  2  0
 92 94  1  0
 94 95  1  0
 95 96  1  0
 96 97  1  0
 97 98  1  0
 98 99  1  0
 99100  1  0
100101  1  0
101102  1  0
102103  1  0
103104  1  0
 74105  1  0
105106  1  6
106107  1  0
107108  2  0
107109  1  0
110109  1  6
110111  1  0
111112  1  0
112113  1  0
113114  1  0
114115  1  0
115116  1  0
116117  1  0
117118  1  0
118119  1  0
119120  1  0
120121  1  0
110122  1  0
122123  1  0
123124  2  0
123125  1  0
125126  1  0
126127  1  0
127128  1  0
128129  1  0
129130  1  0
130131  1  0
131132  1  0
132133  1  0
133134  1  0
134135  1  0
135136  1  0
136137  1  0
105138  1  0
138139  1  1
139140  1  0
140141  2  0
140142  1  0
140143  1  0
144143  1  1
144145  1  0
145146  1  0
146147  1  0
147148  1  6
147149  1  0
149150  1  6
149151  1  0
151152  1  1
 11153  1  0
153154  2  0
153155  1  0
 11156  1  0
157156  1  1
157158  1  0
158159  1  6
158160  1  0
160161  1  0
157162  1  0
162163  1  1
  7164  1  0
164165  2  0
164166  1  0
  7167  1  0
167168  1  0
168169  1  1
168170  1  0
170171  1  1
170  1  1  0
162  9  1  0
138 14  1  0
151144  1  0
 72 19  1  0
 34 27  1  0
M  CHG  6  25  -1  31   1 142  -1 148   1 155  -1 166  -1
M  END
