
     RDKit          2D

 24 27  0  0  0  0  0  0  0  0999 V2000
   -1.1436   -3.7841    0.0000 C   0  0  0  0  0  0  0  0  0  0  0  0
   -1.7537   -2.4138    0.0000 C   0  0  0  0  0  0  0  0  0  0  0  0
   -3.1240   -1.8037    0.0000 C   0  0  0  0  0  0  0  0  0  0  0  0
   -2.9672   -0.3119    0.0000 N   0  0  0  0  0  0  0  0  0  0  0  0
   -1.5000    0.0000    0.0000 C   0  0  0  0  0  0  0  0  0  0  0  0
   -0.7500   -1.2990    0.0000 C   0  0  0  0  0  0  0  0  0  0  0  0
    0.7500   -1.2990    0.0000 C   0  0  0  0  0  0  0  0  0  0  0  0
    1.5000    0.0000    0.0000 C   0  0  0  0  0  0  0  0  0  0  0  0
    0.7500    1.2990    0.0000 C   0  0  0  0  0  0  0  0  0  0  0  0
   -0.7500    1.2990    0.0000 C   0  0  0  0  0  0  0  0  0  0  0  0
    1.2299   -2.7273    0.0000 C   0  0  0  0  0  0  0  0  0  0  0  0
    2.2719   -3.8064    0.0000 C   0  0  0  0  0  0  0  0  0  0  0  0
    2.4734   -1.8886    0.0000 C   0  0  0  0  0  0  0  0  0  0  0  0
    0.3482   -3.9409    0.0000 C   0  0  0  0  0  0  0  0  0  0  0  0
    0.9583   -5.3112    0.0000 C   0  0  0  0  0  0  0  0  0  0  0  0
    0.0766   -6.5247    0.0000 C   0  0  0  0  0  0  0  0  0  0  0  0
    0.6867   -7.8950    0.0000 Cl  0  0  0  0  0  0  0  0  0  0  0  0
   -1.4152   -6.3679    0.0000 C   0  0  0  0  0  0  0  0  0  0  0  0
   -2.8706   -6.7308    0.0000 C   0  0  0  0  0  0  0  0  0  0  0  0
   -1.3105   -7.8643    0.0000 C   0  0  0  0  0  0  0  0  0  0  0  0
   -2.5541   -8.7031    0.0000 C   0  0  0  0  0  0  0  0  0  0  0  0
   -2.0253   -4.9976    0.0000 C   0  0  0  0  0  0  0  0  0  0  0  0
   -3.5171   -4.8408    0.0000 N   0  0  0  0  0  4  0  0  0  0  0  0
   -5.0088   -4.6840    0.0000 C   0  0  0  0  0  3  0  0  0  0  0  0
  1  2  1  6
  2  3  2  0
  3  4  1  0
  4  5  1  0
  5  6  2  0
  6  7  1  0
  7  8  2  0
  8  9  1  0
  9 10  2  0
  7 11  1  0
 11 12  1  0
 11 13  1  0
 11 14  1  0
 14 15  1  1
 15 16  1  0
 16 17  1  1
 16 18  1  0
 18 19  1  1
 18 20  1  0
 20 21  2  0
 18 22  1  0
 22 23  1  6
 23 24  3  0
 14  1  1  0
 22  1  1  0
  6  2  1  0
 10  5  1  0
M  CHG  2  23   1  24  -1
M  END
