
     RDKit          2D

 24 27  0  0  0  0  0  0  0  0999 V2000
    5.9462  -10.3840    0.0000 C   0  0  0  0  0  0  0  0  0  0  0  0
    5.9462   -8.8840    0.0000 O   0  0  0  0  0  0  0  0  0  0  0  0
    4.6471   -8.1340    0.0000 C   0  0  0  0  0  0  0  0  0  0  0  0
    3.3481   -8.8840    0.0000 C   0  0  0  0  0  0  0  0  0  0  0  0
    2.0490   -8.1340    0.0000 C   0  0  0  0  0  0  0  0  0  0  0  0
    2.0490   -6.6340    0.0000 C   0  0  0  0  0  0  0  0  0  0  0  0
    0.7500   -5.8840    0.0000 C   0  0  0  0  0  0  0  0  0  0  0  0
   -0.7500   -5.8840    0.0000 O   0  0  0  0  0  0  0  0  0  0  0  0
   -0.0000   -4.5850    0.0000 C   0  0  0  0  0  0  0  0  0  0  0  0
    1.3515   -3.9342    0.0000 C   0  0  0  0  0  0  0  0  0  0  0  0
    2.5242   -4.8694    0.0000 O   0  0  0  0  0  0  0  0  0  0  0  0
    1.6852   -2.4718    0.0000 N   0  0  0  0  0  0  0  0  0  0  0  0
    0.7500   -1.2990    0.0000 C   0  0  0  0  0  0  0  0  0  0  0  0
    1.5000    0.0000    0.0000 C   0  0  0  0  0  0  0  0  0  0  0  0
    0.7500    1.2990    0.0000 C   0  0  0  0  0  0  0  0  0  0  0  0
   -0.7500    1.2990    0.0000 C   0  0  0  0  0  0  0  0  0  0  0  0
   -1.5000    0.0000    0.0000 C   0  0  0  0  0  0  0  0  0  0  0  0
   -0.7500   -1.2990    0.0000 C   0  0  0  0  0  0  0  0  0  0  0  0
   -1.6852   -2.4718    0.0000 C   0  0  0  0  0  0  0  0  0  0  0  0
   -3.1476   -2.1380    0.0000 O   0  0  0  0  0  0  0  0  0  0  0  0
   -1.3515   -3.9342    0.0000 N   0  0  0  0  0  0  0  0  0  0  0  0
   -2.5242   -4.8694    0.0000 C   0  0  0  0  0  0  0  0  0  0  0  0
    3.3481   -5.8840    0.0000 C   0  0  0  0  0  0  0  0  0  0  0  0
    4.6471   -6.6340    0.0000 C   0  0  0  0  0  0  0  0  0  0  0  0
  1  2  1  0
  2  3  1  0
  3  4  2  0
  4  5  1  0
  5  6  2  0
  7  6  1  1
  7  8  1  0
  9  8  1  6
  9 10  1  0
 10 11  2  0
 10 12  1  0
 12 13  1  0
 13 14  2  0
 14 15  1  0
 15 16  2  0
 16 17  1  0
 17 18  2  0
 18 19  1  0
 19 20  2  0
 19 21  1  0
 21 22  1  0
  6 23  1  0
 23 24  2  0
 24  3  1  0
  9  7  1  0
 18 13  1  0
 21  9  1  0
M  END
