
     RDKit          2D

 29 30  0  0  0  0  0  0  0  0999 V2000
    0.7500   -1.2990    0.0000 C   0  0  0  0  0  0  0  0  0  0  0  0
    1.5000    0.0000    0.0000 C   0  0  0  0  0  0  0  0  0  0  0  0
    0.7500    1.2990    0.0000 C   0  0  0  0  0  0  0  0  0  0  0  0
   -0.7500    1.2990    0.0000 C   0  0  0  0  0  0  0  0  0  0  0  0
   -1.5000    0.0000    0.0000 C   0  0  0  0  0  0  0  0  0  0  0  0
   -2.6491   -0.9642    0.0000 C   0  0  0  0  0  0  0  0  0  0  0  0
   -2.6491    0.9642    0.0000 C   0  0  0  0  0  0  0  0  0  0  0  0
   -0.7500   -1.2990    0.0000 C   0  0  0  0  0  0  0  0  0  0  0  0
   -1.5000   -2.5981    0.0000 C   0  0  0  0  0  0  0  0  0  0  0  0
   -0.7500   -3.8971    0.0000 C   0  0  0  0  0  0  0  0  0  0  0  0
    0.7500   -3.8971    0.0000 C   0  0  0  0  0  0  0  0  0  0  0  0
    1.5000   -5.1962    0.0000 C   0  0  0  0  0  0  0  0  0  0  0  0
    1.5000   -2.5981    0.0000 C   0  0  0  0  0  0  0  0  0  0  0  0
    2.6491   -1.6339    0.0000 C   0  0  0  0  0  0  0  0  0  0  0  0
    2.6491   -3.5623    0.0000 C   0  0  0  0  0  0  0  0  0  0  0  0
    4.0586   -3.0492    0.0000 C   0  0  0  0  0  0  0  0  0  0  0  0
    5.2077   -4.0134    0.0000 C   0  0  0  0  0  0  0  0  0  0  0  0
    4.9472   -5.4906    0.0000 C   0  0  0  0  0  0  0  0  0  0  0  0
    6.6172   -3.5004    0.0000 C   0  0  0  0  0  0  0  0  0  0  0  0
    7.7663   -4.4646    0.0000 C   0  0  0  0  0  0  0  0  0  0  0  0
    9.1758   -3.9515    0.0000 O   0  0  0  0  0  0  0  0  0  0  0  0
   10.3249   -4.9157    0.0000 P   0  0  0  0  0  0  0  0  0  0  0  0
    9.3607   -6.0648    0.0000 O   0  0  0  0  0  0  0  0  0  0  0  0
   11.2891   -3.7666    0.0000 O   0  0  0  0  0  1  0  0  0  0  0  0
   11.4740   -5.8799    0.0000 O   0  0  0  0  0  0  0  0  0  0  0  0
   11.2135   -7.3571    0.0000 P   0  0  0  0  0  0  0  0  0  0  0  0
   12.6907   -7.6176    0.0000 O   0  0  0  0  0  0  0  0  0  0  0  0
    9.7363   -7.0966    0.0000 O   0  0  0  0  0  1  0  0  0  0  0  0
   10.9530   -8.8343    0.0000 O   0  0  0  0  0  1  0  0  0  0  0  0
  1  2  1  1
  2  3  1  0
  3  4  1  0
  4  5  1  0
  5  6  1  0
  5  7  1  0
  5  8  1  0
  8  9  2  0
  9 10  1  0
 10 11  1  0
 11 12  1  1
 11 13  1  0
 13 14  1  1
 13 15  1  0
 15 16  1  0
 16 17  1  0
 17 18  1  0
 17 19  2  0
 19 20  1  0
 20 21  1  0
 21 22  1  0
 22 23  2  0
 22 24  1  0
 22 25  1  0
 25 26  1  0
 26 27  2  0
 26 28  1  0
 26 29  1  0
  8  1  1  0
 13  1  1  0
M  CHG  3  24  -1  28  -1  29  -1
M  END
