
     RDKit          2D

 28 29  0  0  0  0  0  0  0  0999 V2000
    3.0000    0.0000    0.0000 N   0  0  0  0  0  0  0  0  0  0  0  0
    1.5000    0.0000    0.0000 C   0  0  0  0  0  0  0  0  0  0  0  0
    0.7500   -1.2990    0.0000 N   0  0  0  0  0  0  0  0  0  0  0  0
   -0.7500   -1.2990    0.0000 C   0  0  0  0  0  0  0  0  0  0  0  0
   -1.5000   -2.5981    0.0000 O   0  0  0  0  0  0  0  0  0  0  0  0
   -1.5000    0.0000    0.0000 N   0  0  0  0  0  0  0  0  0  0  0  0
   -3.0000    0.0000    0.0000 C   0  0  0  0  0  0  0  0  0  0  0  0
   -3.8817   -1.2135    0.0000 C   0  0  0  0  0  0  0  0  0  0  0  0
   -5.3083   -0.7500    0.0000 C   0  0  0  0  0  0  0  0  0  0  0  0
   -6.5218   -1.6317    0.0000 O   0  0  0  0  0  0  0  0  0  0  0  0
   -5.3083    0.7500    0.0000 C   0  0  0  0  0  0  0  0  0  0  0  0
   -6.5218    1.6317    0.0000 C   0  0  0  0  0  0  0  0  0  0  0  0
   -6.3650    3.1235    0.0000 O   0  0  0  0  0  0  0  0  0  0  0  0
   -7.5785    4.0051    0.0000 P   0  0  0  0  0  0  0  0  0  0  0  0
   -8.4602    2.7916    0.0000 O   0  0  0  0  0  0  0  0  0  0  0  0
   -6.6968    5.2187    0.0000 O   0  0  0  0  0  1  0  0  0  0  0  0
   -8.7920    4.8868    0.0000 O   0  0  0  0  0  0  0  0  0  0  0  0
  -10.1624    4.2767    0.0000 P   0  0  0  0  0  0  0  0  0  0  0  0
  -10.7725    5.6470    0.0000 O   0  0  0  0  0  0  0  0  0  0  0  0
   -9.5523    2.9064    0.0000 O   0  0  0  0  0  1  0  0  0  0  0  0
  -11.5327    3.6666    0.0000 O   0  0  0  0  0  0  0  0  0  0  0  0
  -11.6895    2.1748    0.0000 P   0  0  0  0  0  0  0  0  0  0  0  0
  -13.1813    2.3316    0.0000 O   0  0  0  0  0  0  0  0  0  0  0  0
  -10.1977    2.0180    0.0000 O   0  0  0  0  0  1  0  0  0  0  0  0
  -11.8463    0.6830    0.0000 O   0  0  0  0  0  1  0  0  0  0  0  0
   -3.8817    1.2135    0.0000 O   0  0  0  0  0  0  0  0  0  0  0  0
   -0.7500    1.2990    0.0000 C   0  0  0  0  0  0  0  0  0  0  0  0
    0.7500    1.2990    0.0000 C   0  0  0  0  0  0  0  0  0  0  0  0
  1  2  1  0
  2  3  2  0
  3  4  1  0
  4  5  2  0
  4  6  1  0
  7  6  1  1
  7  8  1  0
  8  9  1  0
  9 10  1  6
  9 11  1  0
 11 12  1  1
 12 13  1  0
 13 14  1  0
 14 15  2  0
 14 16  1  0
 14 17  1  0
 17 18  1  0
 18 19  2  0
 18 20  1  0
 18 21  1  0
 21 22  1  0
 22 23  2  0
 22 24  1  0
 22 25  1  0
 11 26  1  0
  6 27  1  0
 27 28  2  0
 28  2  1  0
 26  7  1  0
M  CHG  4  16  -1  20  -1  24  -1  25  -1
M  END
