
     RDKit          2D

 57 60  0  0  0  0  0  0  0  0999 V2000
   11.8808   -9.2777    0.0000 C   0  0  0  0  0  0  0  0  0  0  0  0
   11.7240   -7.7859    0.0000 C   0  0  0  0  0  0  0  0  0  0  0  0
   11.5672   -6.2941    0.0000 C   0  0  0  0  0  0  0  0  0  0  0  0
   10.2322   -7.9427    0.0000 C   0  0  0  0  0  0  0  0  0  0  0  0
    9.6221   -9.3130    0.0000 O   0  0  0  0  0  0  0  0  0  0  0  0
    8.1303   -9.4698    0.0000 P   0  0  0  0  0  0  0  0  0  0  0  0
    8.2871  -10.9616    0.0000 O   0  0  0  0  0  0  0  0  0  0  0  0
    7.9736   -7.9781    0.0000 O   0  0  0  0  0  1  0  0  0  0  0  0
    6.6386   -9.6266    0.0000 O   0  0  0  0  0  0  0  0  0  0  0  0
    5.7569   -8.4131    0.0000 P   0  0  0  0  0  0  0  0  0  0  0  0
    6.9704   -7.5314    0.0000 O   0  0  0  0  0  0  0  0  0  0  0  0
    4.5434   -9.2948    0.0000 O   0  0  0  0  0  1  0  0  0  0  0  0
    4.8752   -7.1996    0.0000 O   0  0  0  0  0  0  0  0  0  0  0  0
    5.4853   -5.8293    0.0000 C   0  0  0  0  0  0  0  0  0  0  0  0
    4.6036   -4.6157    0.0000 C   0  0  0  0  0  0  0  0  0  0  0  0
    3.1036   -4.6157    0.0000 O   0  0  0  0  0  0  0  0  0  0  0  0
    2.6401   -3.1891    0.0000 C   0  0  0  0  0  0  0  0  0  0  0  0
    1.2135   -2.7256    0.0000 N   0  0  0  0  0  0  0  0  0  0  0  0
   -0.0000   -3.6073    0.0000 C   0  0  0  0  0  0  0  0  0  0  0  0
   -1.2135   -2.7256    0.0000 N   0  0  0  0  0  0  0  0  0  0  0  0
   -0.7500   -1.2990    0.0000 C   0  0  0  0  0  0  0  0  0  0  0  0
    0.7500   -1.2990    0.0000 C   0  0  0  0  0  0  0  0  0  0  0  0
    1.5000    0.0000    0.0000 N   0  0  0  0  0  0  0  0  0  0  0  0
    0.7500    1.2990    0.0000 C   0  0  0  0  0  0  0  0  0  0  0  0
   -0.7500    1.2990    0.0000 N   0  0  0  0  0  0  0  0  0  0  0  0
   -1.5000    0.0000    0.0000 C   0  0  0  0  0  0  0  0  0  0  0  0
   -3.0000    0.0000    0.0000 N   0  0  0  0  0  0  0  0  0  0  0  0
    3.8536   -2.3075    0.0000 C   0  0  0  0  0  0  0  0  0  0  0  0
    3.8536   -0.8075    0.0000 O   0  0  0  0  0  0  0  0  0  0  0  0
    5.0672   -3.1891    0.0000 C   0  0  0  0  0  0  0  0  0  0  0  0
    6.4937   -2.7256    0.0000 O   0  0  0  0  0  0  0  0  0  0  0  0
    7.6085   -3.7293    0.0000 P   0  0  0  0  0  0  0  0  0  0  0  0
    8.6122   -2.6146    0.0000 O   0  0  0  0  0  0  0  0  0  0  0  0
    6.6048   -4.8440    0.0000 O   0  0  0  0  0  1  0  0  0  0  0  0
    8.7232   -4.7330    0.0000 O   0  0  0  0  0  1  0  0  0  0  0  0
   13.2158   -7.6291    0.0000 C   0  0  0  0  0  0  0  0  0  0  0  0
   13.8259   -6.2588    0.0000 O   0  0  0  0  0  0  0  0  0  0  0  0
   14.0975   -8.8427    0.0000 C   0  0  0  0  0  0  0  0  0  0  0  0
   13.4874  -10.2130    0.0000 O   0  0  0  0  0  0  0  0  0  0  0  0
   15.5893   -8.6859    0.0000 N   0  0  0  0  0  0  0  0  0  0  0  0
   16.4709   -9.8994    0.0000 C   0  0  0  0  0  0  0  0  0  0  0  0
   17.9627   -9.7426    0.0000 C   0  0  0  0  0  0  0  0  0  0  0  0
   18.8444  -10.9561    0.0000 C   0  0  0  0  0  0  0  0  0  0  0  0
   18.2343  -12.3264    0.0000 O   0  0  0  0  0  0  0  0  0  0  0  0
   20.3362  -10.7993    0.0000 N   0  0  0  0  0  0  0  0  0  0  0  0
   21.2179  -12.0129    0.0000 C   0  0  0  0  0  0  0  0  0  0  0  0
   22.7096  -11.8561    0.0000 C   0  0  0  0  0  0  0  0  0  0  0  0
   23.5913  -13.0696    0.0000 S   0  0  0  0  0  0  0  0  0  0  0  0
   25.0831  -12.9128    0.0000 C   0  0  0  0  0  0  0  0  0  0  0  0
   25.6932  -11.5425    0.0000 O   0  0  0  0  0  0  0  0  0  0  0  0
   25.9648  -14.1263    0.0000 C   0  0  0  0  0  0  0  0  0  0  0  0
   25.3547  -15.4966    0.0000 C   0  0  0  0  0  0  0  0  0  0  0  0
   26.2364  -16.7102    0.0000 C   0  0  0  0  0  0  0  0  0  0  0  0
   27.7281  -16.5534    0.0000 C   0  0  0  0  0  0  0  0  0  0  0  0
   28.6098  -17.7669    0.0000 O   0  0  0  0  0  0  0  0  0  0  0  0
   28.3382  -15.1831    0.0000 C   0  0  0  0  0  0  0  0  0  0  0  0
   27.4566  -13.9695    0.0000 C   0  0  0  0  0  0  0  0  0  0  0  0
  1  2  1  0
  2  3  1  0
  2  4  1  0
  4  5  1  0
  5  6  1  0
  6  7  2  0
  6  8  1  0
  6  9  1  0
  9 10  1  0
 10 11  2  0
 10 12  1  0
 10 13  1  0
 13 14  1  0
 15 14  1  1
 15 16  1  0
 16 17  1  0
 17 18  1  1
 18 19  1  0
 19 20  2  0
 20 21  1  0
 21 22  2  0
 22 23  1  0
 23 24  2  0
 24 25  1  0
 25 26  2  0
 26 27  1  0
 17 28  1  0
 28 29  1  6
 28 30  1  0
 30 31  1  6
 31 32  1  0
 32 33  2  0
 32 34  1  0
 32 35  1  0
  2 36  1  0
 36 37  1  1
 36 38  1  0
 38 39  2  0
 38 40  1  0
 40 41  1  0
 41 42  1  0
 42 43  1  0
 43 44  2  0
 43 45  1  0
 45 46  1  0
 46 47  1  0
 47 48  1  0
 48 49  1  0
 49 50  2  0
 49 51  1  0
 51 52  2  0
 52 53  1  0
 53 54  2  0
 54 55  1  0
 54 56  1  0
 56 57  2  0
 30 15  1  0
 57 51  1  0
 22 18  1  0
 26 21  1  0
M  CHG  4   8  -1  12  -1  34  -1  35  -1
M  END
