
     RDKit          2D

 36 37  0  0  0  0  0  0  0  0999 V2000
   13.1686    1.3395    0.0000 R   0  0  0  0  0  1  0  0  0  0  0  0
   11.9551    0.4579    0.0000 C   0  0  0  0  0  0  0  0  0  0  0  0
   10.5848    1.0680    0.0000 O   0  0  0  0  0  0  0  0  0  0  0  0
   12.1119   -1.0339    0.0000 O   0  0  0  0  0  0  0  0  0  0  0  0
   10.8984   -1.9156    0.0000 C   0  0  0  0  0  0  0  0  0  0  0  0
   11.0552   -3.4074    0.0000 C   0  0  0  0  0  0  0  0  0  0  0  0
    9.8417   -4.2890    0.0000 C   0  0  0  0  0  0  0  0  0  0  0  0
    9.9984   -5.7808    0.0000 O   0  0  0  0  0  0  0  0  0  0  0  0
    8.7849   -6.6625    0.0000 P   0  0  0  0  0  0  0  0  0  0  0  0
    9.6666   -7.8760    0.0000 O   0  0  0  0  0  0  0  0  0  0  0  0
    7.9032   -5.4490    0.0000 O   0  0  0  0  0  1  0  0  0  0  0  0
    7.5714   -7.5442    0.0000 O   0  0  0  0  0  0  0  0  0  0  0  0
    6.2011   -6.9341    0.0000 P   0  0  0  0  0  0  0  0  0  0  0  0
    6.8112   -5.5638    0.0000 O   0  0  0  0  0  0  0  0  0  0  0  0
    5.5910   -8.3044    0.0000 O   0  0  0  0  0  1  0  0  0  0  0  0
    4.8308   -6.3240    0.0000 O   0  0  0  0  0  0  0  0  0  0  0  0
    4.6740   -4.8322    0.0000 C   0  0  0  0  0  0  0  0  0  0  0  0
    3.3037   -4.2221    0.0000 C   0  0  0  0  0  0  0  0  0  0  0  0
    2.9918   -2.7549    0.0000 O   0  0  0  0  0  0  0  0  0  0  0  0
    1.5000   -2.5981    0.0000 C   0  0  0  0  0  0  0  0  0  0  0  0
    0.7500   -1.2990    0.0000 N   0  0  0  0  0  0  0  0  0  0  0  0
    1.5000    0.0000    0.0000 C   0  0  0  0  0  0  0  0  0  0  0  0
    0.7500    1.2990    0.0000 C   0  0  0  0  0  0  0  0  0  0  0  0
   -0.7500    1.2990    0.0000 C   0  0  0  0  0  0  0  0  0  0  0  0
   -1.5000    2.5981    0.0000 N   0  0  0  0  0  0  0  0  0  0  0  0
   -1.5000    0.0000    0.0000 N   0  0  0  0  0  0  0  0  0  0  0  0
   -0.7500   -1.2990    0.0000 C   0  0  0  0  0  0  0  0  0  0  0  0
   -1.5000   -2.5981    0.0000 O   0  0  0  0  0  0  0  0  0  0  0  0
    0.8899   -3.9684    0.0000 C   0  0  0  0  0  0  0  0  0  0  0  0
   -0.5773   -4.2803    0.0000 O   0  0  0  0  0  0  0  0  0  0  0  0
    2.0046   -4.9721    0.0000 C   0  0  0  0  0  0  0  0  0  0  0  0
    1.8478   -6.4639    0.0000 O   0  0  0  0  0  0  0  0  0  0  0  0
   12.4255   -4.0175    0.0000 O   0  0  0  0  0  0  0  0  0  0  0  0
   13.6390   -3.1358    0.0000 C   0  0  0  0  0  0  0  0  0  0  0  0
   15.0093   -3.7459    0.0000 R   0  0  0  0  0  1  0  0  0  0  0  0
   13.4822   -1.6440    0.0000 O   0  0  0  0  0  0  0  0  0  0  0  0
  1  2  1  0
  2  3  2  0
  2  4  1  0
  4  5  1  0
  6  5  1  1
  6  7  1  0
  7  8  1  0
  8  9  1  0
  9 10  2  0
  9 11  1  0
  9 12  1  0
 12 13  1  0
 13 14  2  0
 13 15  1  0
 13 16  1  0
 16 17  1  0
 18 17  1  6
 18 19  1  0
 19 20  1  0
 20 21  1  6
 21 22  1  0
 22 23  2  0
 23 24  1  0
 24 25  1  0
 24 26  2  0
 26 27  1  0
 27 28  2  0
 20 29  1  0
 29 30  1  1
 29 31  1  0
 31 32  1  1
  6 33  1  0
 33 34  1  0
 34 35  1  0
 34 36  2  0
 31 18  1  0
 27 21  1  0
M  CHG  2  11  -1  15  -1
M  ISO  2   1   1  35   2
M  END
