
     RDKit          2D

 29 33  0  0  0  0  0  0  0  0999 V2000
   -3.0311    0.7500    0.0000 C   0  0  0  0  0  0  0  0  0  0  0  0
   -1.7321    1.5000    0.0000 C   0  0  0  0  0  0  0  0  0  0  0  0
   -0.4330    0.7500    0.0000 C   0  0  0  0  0  0  0  0  0  0  0  0
    0.8660    0.0000    0.0000 O   0  0  0  0  0  0  0  0  0  0  0  0
   -0.4330   -0.7500    0.0000 C   0  0  0  0  0  0  0  0  0  0  0  0
    0.8660   -1.5000    0.0000 C   0  0  0  0  0  0  0  0  0  0  0  0
    0.8660   -3.0000    0.0000 C   0  0  0  0  0  0  0  0  0  0  0  0
    2.1651   -3.7500    0.0000 O   0  0  0  0  0  0  0  0  0  0  0  0
   -0.4330   -3.7500    0.0000 C   0  0  0  0  0  0  0  0  0  0  0  0
   -1.7321   -3.0000    0.0000 C   0  0  0  0  0  0  0  0  0  0  0  0
   -1.7321   -1.5000    0.0000 C   0  0  0  0  0  0  0  0  0  0  0  0
   -3.0311   -2.2500    0.0000 C   0  0  0  0  0  0  0  0  0  0  0  0
   -3.0311   -0.7500    0.0000 C   0  0  0  0  0  0  0  0  0  0  0  0
   -4.3301   -1.5000    0.0000 C   0  0  0  0  0  0  0  0  0  0  0  0
   -5.6292   -0.7500    0.0000 C   0  0  0  0  0  0  0  0  0  0  0  0
   -5.6292    0.7500    0.0000 C   0  0  0  0  0  0  0  0  0  0  0  0
   -6.9995    0.1399    0.0000 C   0  0  0  0  0  0  0  0  0  0  0  0
   -4.3301    1.5000    0.0000 C   0  0  0  0  0  0  0  0  0  0  0  0
   -4.6420    2.9672    0.0000 C   0  0  0  0  0  0  0  0  0  0  0  0
   -6.1338    3.1240    0.0000 C   0  0  0  0  0  0  0  0  0  0  0  0
   -6.7439    1.7537    0.0000 C   0  0  0  0  0  0  0  0  0  0  0  0
   -8.2111    1.4418    0.0000 C   0  0  0  0  0  0  0  0  0  0  0  0
   -9.2148    2.5565    0.0000 C   0  0  0  0  0  0  0  0  0  0  0  0
   -8.6746    0.0152    0.0000 C   0  0  0  0  0  0  0  0  0  0  0  0
  -10.1419   -0.2966    0.0000 C   0  0  0  0  0  0  0  0  0  0  0  0
  -10.6054   -1.7232    0.0000 C   0  0  0  0  0  0  0  0  0  0  0  0
  -12.0726   -2.0351    0.0000 C   0  0  0  0  0  0  0  0  0  0  0  0
  -12.5361   -3.4617    0.0000 C   0  0  0  0  0  0  0  0  0  0  0  0
  -13.0763   -0.9204    0.0000 C   0  0  0  0  0  0  0  0  0  0  0  0
  1  2  1  6
  3  2  1  1
  3  4  1  0
  4  5  1  0
  5  6  1  6
  6  7  1  0
  7  8  1  1
  7  9  1  0
  9 10  1  0
 10 11  1  0
 11 12  1  1
 11 13  1  0
 13 14  1  1
 14 15  1  0
 15 16  1  0
 16 17  1  1
 16 18  1  0
 18 19  1  1
 19 20  1  0
 21 20  1  1
 21 22  1  0
 22 23  1  1
 22 24  1  0
 24 25  1  0
 25 26  1  0
 26 27  1  0
 27 28  1  0
 27 29  1  0
 13  1  1  0
 21 16  1  0
 18  1  1  0
  5  3  1  0
 11  5  1  0
M  END
