
     RDKit          2D

 37 39  0  0  0  0  0  0  0  0999 V2000
    3.5260   -1.2990    0.0000 N   0  0  0  0  0  0  0  0  0  0  0  0
    2.7760    0.0000    0.0000 C   0  0  0  0  0  0  0  0  0  0  0  0
    3.5260    1.2990    0.0000 O   0  0  0  0  0  0  0  0  0  0  0  0
    1.2760    0.0000    0.0000 C   0  0  0  0  0  0  0  0  0  0  0  0
    0.3943    1.2135    0.0000 C   0  0  0  0  0  0  0  0  0  0  0  0
    0.8578    2.6401    0.0000 N   0  0  0  0  0  0  0  0  0  0  0  0
   -0.1459    3.7548    0.0000 C   0  0  0  0  0  0  0  0  0  0  0  0
    0.3177    5.1814    0.0000 N   0  0  0  0  0  0  0  0  0  0  0  0
   -0.6860    6.2961    0.0000 C   0  0  0  0  0  0  0  0  0  0  0  0
   -2.1778    6.1393    0.0000 O   0  0  0  0  0  0  0  0  0  0  0  0
   -2.7879    7.5097    0.0000 C   0  0  0  0  0  0  0  0  0  0  0  0
   -4.2552    7.8215    0.0000 C   0  0  0  0  0  0  0  0  0  0  0  0
   -4.7187    9.2481    0.0000 O   0  0  0  0  0  0  0  0  0  0  0  0
   -6.1859    9.5600    0.0000 P   0  0  0  0  0  0  0  0  0  0  0  0
   -5.8740   11.0272    0.0000 O   0  0  0  0  0  0  0  0  0  0  0  0
   -6.4978    8.0928    0.0000 O   0  0  0  0  0  1  0  0  0  0  0  0
   -7.6531    9.8718    0.0000 O   0  0  0  0  0  1  0  0  0  0  0  0
   -1.6732    8.5134    0.0000 C   0  0  0  0  0  0  0  0  0  0  0  0
   -1.8300   10.0051    0.0000 O   0  0  0  0  0  0  0  0  0  0  0  0
   -0.3742    7.7634    0.0000 C   0  0  0  0  0  0  0  0  0  0  0  0
    0.9961    8.3735    0.0000 O   0  0  0  0  0  0  0  0  0  0  0  0
   -1.0323    0.7500    0.0000 N   0  0  0  0  0  0  0  0  0  0  0  0
   -2.2458    1.6317    0.0000 C   0  0  0  0  0  0  0  0  0  0  0  0
   -3.6724    1.1682    0.0000 O   0  0  0  0  0  0  0  0  0  0  0  0
   -4.5541    2.3817    0.0000 C   0  0  0  0  0  0  0  0  0  0  0  0
   -6.0541    2.3817    0.0000 C   0  0  0  0  0  0  0  0  0  0  0  0
   -6.8041    3.6807    0.0000 O   0  0  0  0  0  0  0  0  0  0  0  0
   -8.3041    3.6807    0.0000 P   0  0  0  0  0  0  0  0  0  0  0  0
   -8.3041    5.1807    0.0000 O   0  0  0  0  0  0  0  0  0  0  0  0
   -8.3041    2.1807    0.0000 O   0  0  0  0  0  1  0  0  0  0  0  0
   -9.8041    3.6807    0.0000 O   0  0  0  0  0  1  0  0  0  0  0  0
   -3.6724    3.5952    0.0000 C   0  0  0  0  0  0  0  0  0  0  0  0
   -4.1359    5.0218    0.0000 O   0  0  0  0  0  0  0  0  0  0  0  0
   -2.2458    3.1317    0.0000 C   0  0  0  0  0  0  0  0  0  0  0  0
   -1.0323    4.0134    0.0000 O   0  0  0  0  0  0  0  0  0  0  0  0
   -1.0323   -0.7500    0.0000 C   0  0  0  0  0  0  0  0  0  0  0  0
    0.3943   -1.2135    0.0000 N   0  0  0  0  0  0  0  0  0  0  0  0
  1  2  1  0
  2  3  2  0
  2  4  1  0
  4  5  2  0
  5  6  1  0
  6  7  2  0
  7  8  1  0
  9  8  1  6
  9 10  1  0
 10 11  1  0
 11 12  1  6
 12 13  1  0
 13 14  1  0
 14 15  2  0
 14 16  1  0
 14 17  1  0
 11 18  1  0
 18 19  1  1
 18 20  1  0
 20 21  1  1
  5 22  1  0
 23 22  1  6
 23 24  1  0
 24 25  1  0
 25 26  1  6
 26 27  1  0
 27 28  1  0
 28 29  2  0
 28 30  1  0
 28 31  1  0
 25 32  1  0
 32 33  1  1
 32 34  1  0
 34 35  1  1
 22 36  1  0
 36 37  2  0
 37  4  1  0
 20  9  1  0
 34 23  1  0
M  CHG  4  16  -1  17  -1  30  -1  31  -1
M  END
