
     RDKit          2D

 26 30  0  0  0  0  0  0  0  0999 V2000
    2.5546   -0.0575    0.0000 O   0  0  0  0  0  0  0  0  0  0  0  0
    3.8536   -0.8075    0.0000 C   0  0  0  0  0  0  0  0  0  0  0  0
    5.1527   -0.0575    0.0000 O   0  0  0  0  0  1  0  0  0  0  0  0
    3.8536   -2.3075    0.0000 C   0  0  0  0  0  0  0  0  0  0  0  0
    2.6401   -3.1891    0.0000 C   0  0  0  0  0  0  0  0  0  0  0  0
    1.2135   -2.7256    0.0000 C   0  0  0  0  0  0  0  0  0  0  0  0
   -0.0000   -3.6073    0.0000 C   0  0  0  0  0  0  0  0  0  0  0  0
   -1.2135   -2.7256    0.0000 N   0  0  0  0  0  0  0  0  0  0  0  0
   -0.7500   -1.2990    0.0000 C   0  0  0  0  0  0  0  0  0  0  0  0
    0.7500   -1.2990    0.0000 C   0  0  0  0  0  0  0  0  0  0  0  0
    1.5000    0.0000    0.0000 C   0  0  0  0  0  0  0  0  0  0  0  0
    0.7500    1.2990    0.0000 C   0  0  0  0  0  0  0  0  0  0  0  0
   -0.7500    1.2990    0.0000 C   0  0  0  0  0  0  0  0  0  0  0  0
   -1.5000    0.0000    0.0000 C   0  0  0  0  0  0  0  0  0  0  0  0
    3.1036   -4.6157    0.0000 C   0  0  0  0  0  0  0  0  0  0  0  0
    4.6036   -4.6157    0.0000 C   0  0  0  0  0  0  0  0  0  0  0  0
    5.4853   -5.8293    0.0000 C   0  0  0  0  0  0  0  0  0  0  0  0
    5.0218   -7.2558    0.0000 C   0  0  0  0  0  0  0  0  0  0  0  0
    6.2353   -8.1375    0.0000 N   0  0  0  0  0  0  0  0  0  0  0  0
    7.4488   -7.2558    0.0000 C   0  0  0  0  0  0  0  0  0  0  0  0
    6.9853   -5.8293    0.0000 C   0  0  0  0  0  0  0  0  0  0  0  0
    7.9890   -4.7145    0.0000 C   0  0  0  0  0  0  0  0  0  0  0  0
    9.4562   -5.0264    0.0000 C   0  0  0  0  0  0  0  0  0  0  0  0
    9.9198   -6.4530    0.0000 C   0  0  0  0  0  0  0  0  0  0  0  0
    8.9161   -7.5677    0.0000 C   0  0  0  0  0  0  0  0  0  0  0  0
    5.0672   -3.1891    0.0000 N   0  0  0  0  0  0  0  0  0  0  0  0
  1  2  2  0
  2  3  1  0
  2  4  1  0
  4  5  2  0
  5  6  1  0
  6  7  2  0
  7  8  1  0
  8  9  1  0
  9 10  2  0
 10 11  1  0
 11 12  2  0
 12 13  1  0
 13 14  2  0
  5 15  1  0
 15 16  2  0
 16 17  1  0
 17 18  2  0
 18 19  1  0
 19 20  1  0
 20 21  2  0
 21 22  1  0
 22 23  2  0
 23 24  1  0
 24 25  2  0
 16 26  1  0
 26  4  1  0
 10  6  1  0
 21 17  1  0
 14  9  1  0
 25 20  1  0
M  CHG  1   3  -1
M  END
