
     RDKit          2D

 92 93  0  0  0  0  0  0  0  0999 V2000
    5.2500   -1.2990    0.0000 C   0  0  0  0  0  0  0  0  0  0  0  0
    3.7500   -1.2990    0.0000 C   0  0  0  0  0  0  0  0  0  0  0  0
    3.0000   -2.5981    0.0000 O   0  0  0  0  0  0  0  0  0  0  0  0
    3.0000    0.0000    0.0000 N   0  0  0  0  0  0  0  0  0  0  0  0
    1.5000    0.0000    0.0000 C   0  0  0  0  0  0  0  0  0  0  0  0
    0.7500   -1.2990    0.0000 C   0  0  0  0  0  0  0  0  0  0  0  0
    1.5000   -2.5981    0.0000 O   0  0  0  0  0  0  0  0  0  0  0  0
    0.7500   -3.8971    0.0000 C   0  0  0  0  0  0  0  0  0  0  0  0
   -0.7500   -3.8971    0.0000 C   0  0  0  0  0  0  0  0  0  0  0  0
   -1.5000   -2.5981    0.0000 O   0  0  0  0  0  0  0  0  0  0  0  0
   -1.5000   -5.1962    0.0000 C   0  0  0  0  0  0  0  0  0  0  0  0
   -3.0000   -5.1962    0.0000 N   0  0  0  0  0  0  0  0  0  0  0  0
   -3.7500   -6.4952    0.0000 C   0  0  0  0  0  0  0  0  0  0  0  0
   -5.2500   -6.4952    0.0000 C   0  0  0  0  0  0  0  0  0  0  0  0
   -3.0000   -7.7942    0.0000 O   0  0  0  0  0  0  0  0  0  0  0  0
   -0.7500   -6.4952    0.0000 C   0  0  0  0  0  0  0  0  0  0  0  0
   -1.5000   -7.7942    0.0000 O   0  0  0  0  0  0  0  0  0  0  0  0
   -0.7500   -9.0933    0.0000 P   0  0  0  0  0  0  0  0  0  0  0  0
    0.5490   -8.3433    0.0000 O   0  0  0  0  0  0  0  0  0  0  0  0
   -2.0490   -9.8433    0.0000 O   0  0  0  0  0  1  0  0  0  0  0  0
   -0.0000  -10.3923    0.0000 O   0  0  0  0  0  0  0  0  0  0  0  0
    1.5000  -10.3923    0.0000 P   0  0  0  0  0  0  0  0  0  0  0  0
    1.5000  -11.8923    0.0000 O   0  0  0  0  0  0  0  0  0  0  0  0
    1.5000   -8.8923    0.0000 O   0  0  0  0  0  1  0  0  0  0  0  0
    3.0000  -10.3923    0.0000 O   0  0  0  0  0  0  0  0  0  0  0  0
    3.7500   -9.0933    0.0000 C   0  0  0  0  0  0  0  0  0  0  0  0
    5.2500   -9.0933    0.0000 C   0  0  0  0  0  0  0  0  0  0  0  0
    6.0000  -10.3923    0.0000 C   0  0  0  0  0  0  0  0  0  0  0  0
    7.5000  -10.3923    0.0000 C   0  0  0  0  0  0  0  0  0  0  0  0
    5.2500  -11.6913    0.0000 C   0  0  0  0  0  0  0  0  0  0  0  0
    6.0000  -12.9904    0.0000 C   0  0  0  0  0  0  0  0  0  0  0  0
    5.2500  -14.2894    0.0000 C   0  0  0  0  0  0  0  0  0  0  0  0
    6.0000  -15.5885    0.0000 C   0  0  0  0  0  0  0  0  0  0  0  0
    5.2500  -16.8875    0.0000 C   0  0  0  0  0  0  0  0  0  0  0  0
    7.5000  -15.5885    0.0000 C   0  0  0  0  0  0  0  0  0  0  0  0
    8.2500  -16.8875    0.0000 C   0  0  0  0  0  0  0  0  0  0  0  0
    9.7500  -16.8875    0.0000 C   0  0  0  0  0  0  0  0  0  0  0  0
   10.5000  -18.1865    0.0000 C   0  0  0  0  0  0  0  0  0  0  0  0
   12.0000  -18.1865    0.0000 C   0  0  0  0  0  0  0  0  0  0  0  0
    9.7500  -19.4856    0.0000 C   0  0  0  0  0  0  0  0  0  0  0  0
   10.5000  -20.7846    0.0000 C   0  0  0  0  0  0  0  0  0  0  0  0
    9.7500  -22.0836    0.0000 C   0  0  0  0  0  0  0  0  0  0  0  0
   10.5000  -23.3827    0.0000 C   0  0  0  0  0  0  0  0  0  0  0  0
    9.7500  -24.6817    0.0000 C   0  0  0  0  0  0  0  0  0  0  0  0
   12.0000  -23.3827    0.0000 C   0  0  0  0  0  0  0  0  0  0  0  0
   12.7500  -24.6817    0.0000 C   0  0  0  0  0  0  0  0  0  0  0  0
   14.2500  -24.6817    0.0000 C   0  0  0  0  0  0  0  0  0  0  0  0
   15.0000  -25.9808    0.0000 C   0  0  0  0  0  0  0  0  0  0  0  0
   16.5000  -25.9808    0.0000 C   0  0  0  0  0  0  0  0  0  0  0  0
   14.2500  -27.2798    0.0000 C   0  0  0  0  0  0  0  0  0  0  0  0
   15.0000  -28.5788    0.0000 C   0  0  0  0  0  0  0  0  0  0  0  0
   14.2500  -29.8779    0.0000 C   0  0  0  0  0  0  0  0  0  0  0  0
   15.0000  -31.1769    0.0000 C   0  0  0  0  0  0  0  0  0  0  0  0
   14.2500  -32.4760    0.0000 C   0  0  0  0  0  0  0  0  0  0  0  0
   16.5000  -31.1769    0.0000 C   0  0  0  0  0  0  0  0  0  0  0  0
   17.2500  -32.4760    0.0000 C   0  0  0  0  0  0  0  0  0  0  0  0
   18.7500  -32.4760    0.0000 C   0  0  0  0  0  0  0  0  0  0  0  0
   19.5000  -33.7750    0.0000 C   0  0  0  0  0  0  0  0  0  0  0  0
   21.0000  -33.7750    0.0000 C   0  0  0  0  0  0  0  0  0  0  0  0
   18.7500  -35.0740    0.0000 C   0  0  0  0  0  0  0  0  0  0  0  0
   19.5000  -36.3731    0.0000 C   0  0  0  0  0  0  0  0  0  0  0  0
   18.7500  -37.6721    0.0000 C   0  0  0  0  0  0  0  0  0  0  0  0
   19.5000  -38.9711    0.0000 C   0  0  0  0  0  0  0  0  0  0  0  0
   18.7500  -40.2702    0.0000 C   0  0  0  0  0  0  0  0  0  0  0  0
   21.0000  -38.9711    0.0000 C   0  0  0  0  0  0  0  0  0  0  0  0
   21.7500  -40.2702    0.0000 C   0  0  0  0  0  0  0  0  0  0  0  0
   23.2500  -40.2702    0.0000 C   0  0  0  0  0  0  0  0  0  0  0  0
   24.0000  -41.5692    0.0000 C   0  0  0  0  0  0  0  0  0  0  0  0
   23.2500  -42.8683    0.0000 C   0  0  0  0  0  0  0  0  0  0  0  0
   25.5000  -41.5692    0.0000 C   0  0  0  0  0  0  0  0  0  0  0  0
   26.2500  -42.8683    0.0000 C   0  0  0  0  0  0  0  0  0  0  0  0
   27.7500  -42.8683    0.0000 C   0  0  0  0  0  0  0  0  0  0  0  0
   28.5000  -44.1673    0.0000 C   0  0  0  0  0  0  0  0  0  0  0  0
   27.7500  -45.4663    0.0000 C   0  0  0  0  0  0  0  0  0  0  0  0
   30.0000  -44.1673    0.0000 C   0  0  0  0  0  0  0  0  0  0  0  0
   30.7500  -45.4663    0.0000 C   0  0  0  0  0  0  0  0  0  0  0  0
   32.2500  -45.4663    0.0000 C   0  0  0  0  0  0  0  0  0  0  0  0
   33.0000  -46.7654    0.0000 C   0  0  0  0  0  0  0  0  0  0  0  0
   34.5000  -46.7654    0.0000 C   0  0  0  0  0  0  0  0  0  0  0  0
   32.2500  -48.0644    0.0000 C   0  0  0  0  0  0  0  0  0  0  0  0
    0.7500   -6.4952    0.0000 O   0  0  0  0  0  0  0  0  0  0  0  0
    1.5000   -5.1962    0.0000 C   0  0  0  0  0  0  0  0  0  0  0  0
    3.0000   -5.1962    0.0000 C   0  0  0  0  0  0  0  0  0  0  0  0
    3.7500   -6.4952    0.0000 O   0  0  0  0  0  0  0  0  0  0  0  0
   -0.7500   -1.2990    0.0000 O   0  0  0  0  0  0  0  0  0  0  0  0
   -1.5000    0.0000    0.0000 C   0  0  0  0  0  0  0  0  0  0  0  0
   -3.0000    0.0000    0.0000 C   0  0  0  0  0  0  0  0  0  0  0  0
   -3.7500   -1.2990    0.0000 O   0  0  0  0  0  0  0  0  0  0  0  0
   -0.7500    1.2990    0.0000 C   0  0  0  0  0  0  0  0  0  0  0  0
   -1.5000    2.5981    0.0000 O   0  0  0  0  0  0  0  0  0  0  0  0
    0.7500    1.2990    0.0000 C   0  0  0  0  0  0  0  0  0  0  0  0
    1.5000    2.5981    0.0000 O   0  0  0  0  0  0  0  0  0  0  0  0
  1  2  1  0
  2  3  2  0
  2  4  1  0
  5  4  1  6
  5  6  1  0
  6  7  1  6
  8  7  1  6
  8  9  1  0
  9 10  1  1
  9 11  1  0
 11 12  1  6
 12 13  1  0
 13 14  1  0
 13 15  2  0
 11 16  1  0
 16 17  1  6
 17 18  1  0
 18 19  2  0
 18 20  1  0
 18 21  1  0
 21 22  1  0
 22 23  2  0
 22 24  1  0
 22 25  1  0
 25 26  1  0
 26 27  1  0
 27 28  2  0
 28 29  1  0
 28 30  1  0
 30 31  1  0
 31 32  1  0
 32 33  2  0
 33 34  1  0
 33 35  1  0
 35 36  1  0
 36 37  1  0
 37 38  2  0
 38 39  1  0
 38 40  1  0
 40 41  1  0
 41 42  1  0
 42 43  2  0
 43 44  1  0
 43 45  1  0
 45 46  1  0
 46 47  1  0
 47 48  2  0
 48 49  1  0
 48 50  1  0
 50 51  1  0
 51 52  1  0
 52 53  2  0
 53 54  1  0
 53 55  1  0
 55 56  1  0
 56 57  1  0
 57 58  2  0
 58 59  1  0
 58 60  1  0
 60 61  1  0
 61 62  1  0
 62 63  2  0
 63 64  1  0
 63 65  1  0
 65 66  1  0
 66 67  1  0
 67 68  2  0
 68 69  1  0
 68 70  1  0
 70 71  1  0
 71 72  1  0
 72 73  2  0
 73 74  1  0
 73 75  1  0
 75 76  1  0
 76 77  1  0
 77 78  2  0
 78 79  1  0
 78 80  1  0
 16 81  1  0
 81 82  1  0
 82 83  1  1
 83 84  1  0
  6 85  1  0
 85 86  1  0
 86 87  1  6
 87 88  1  0
 86 89  1  0
 89 90  1  1
 89 91  1  0
 91 92  1  6
 91  5  1  0
 82  8  1  0
M  CHG  2  20  -1  24  -1
M  END
