
     RDKit          2D

 34 33  0  0  0  0  0  0  0  0999 V2000
    0.0000    0.0000    0.0000 R   0  0  0  0  0  0  0  0  0  0  0  0
    1.2990    0.7500    0.0000 C   0  0  0  0  0  0  0  0  0  0  0  0
    2.5981   -0.0000    0.0000 C   0  0  0  0  0  0  0  0  0  0  0  0
    3.8971    0.7500    0.0000 C   0  0  0  0  0  0  0  0  0  0  0  0
    5.1962   -0.0000    0.0000 O   0  0  0  0  0  0  0  0  0  0  0  0
    3.8971    2.2500    0.0000 S   0  0  0  0  0  0  0  0  0  0  0  0
    5.1962    3.0000    0.0000 C   0  0  0  0  0  0  0  0  0  0  0  0
    5.1962    4.5000    0.0000 C   0  0  0  0  0  0  0  0  0  0  0  0
    6.4952    5.2500    0.0000 N   0  0  0  0  0  0  0  0  0  0  0  0
    6.4952    6.7500    0.0000 C   0  0  0  0  0  0  0  0  0  0  0  0
    5.1962    7.5000    0.0000 O   0  0  0  0  0  0  0  0  0  0  0  0
    7.7942    7.5000    0.0000 C   0  0  0  0  0  0  0  0  0  0  0  0
    7.7942    9.0000    0.0000 C   0  0  0  0  0  0  0  0  0  0  0  0
    9.0933    9.7500    0.0000 N   0  0  0  0  0  0  0  0  0  0  0  0
    9.0933   11.2500    0.0000 C   0  0  0  0  0  0  0  0  0  0  0  0
    7.7942   12.0000    0.0000 O   0  0  0  0  0  0  0  0  0  0  0  0
   10.3923   12.0000    0.0000 C   0  0  0  0  0  0  0  0  0  0  0  0
   11.6913   11.2500    0.0000 O   0  0  0  0  0  0  0  0  0  0  0  0
   10.3923   13.5000    0.0000 C   0  0  0  0  0  0  0  0  0  0  0  0
   11.8923   13.5000    0.0000 C   0  0  0  0  0  0  0  0  0  0  0  0
    8.8923   13.5000    0.0000 C   0  0  0  0  0  0  0  0  0  0  0  0
   10.3923   15.0000    0.0000 C   0  0  0  0  0  0  0  0  0  0  0  0
    9.0933   15.7500    0.0000 O   0  0  0  0  0  0  0  0  0  0  0  0
    9.0933   17.2500    0.0000 P   0  0  0  0  0  0  0  0  0  0  0  0
   10.5933   17.2500    0.0000 O   0  0  0  0  0  0  0  0  0  0  0  0
    7.5933   17.2500    0.0000 O   0  0  0  0  0  1  0  0  0  0  0  0
    9.0933   18.7500    0.0000 O   0  0  0  0  0  0  0  0  0  0  0  0
   10.3923   19.5000    0.0000 C   0  0  0  0  0  0  0  0  0  0  0  0
   10.3923   21.0000    0.0000 C   0  0  0  0  0  0  0  0  0  0  0  0
    9.0933   21.7500    0.0000 N   0  0  0  0  0  0  0  0  0  0  0  0
    9.0933   23.2500    0.0000 R   0  0  0  0  0  0  0  0  0  0  0  0
   11.6913   21.7500    0.0000 C   0  0  0  0  0  0  0  0  0  0  0  0
   11.6913   23.2500    0.0000 R   0  0  0  0  0  0  0  0  0  0  0  0
   12.9904   21.0000    0.0000 O   0  0  0  0  0  0  0  0  0  0  0  0
  1  2  1  0
  2  3  1  0
  3  4  1  0
  4  5  2  0
  4  6  1  0
  6  7  1  0
  7  8  1  0
  8  9  1  0
  9 10  1  0
 10 11  2  0
 10 12  1  0
 12 13  1  0
 13 14  1  0
 14 15  1  0
 15 16  2  0
 15 17  1  0
 17 18  1  1
 17 19  1  0
 19 20  1  0
 19 21  1  0
 19 22  1  0
 22 23  1  0
 23 24  1  0
 24 25  2  0
 24 26  1  0
 24 27  1  0
 27 28  1  0
 29 28  1  6
 29 30  1  0
 30 31  1  0
 29 32  1  0
 32 33  1  0
 32 34  2  0
M  CHG  1  26  -1
M  END
