
     RDKit          2D

 33 36  0  0  0  0  0  0  0  0999 V2000
   -1.3515   -3.9342    0.0000 C   0  0  0  0  0  0  0  0  0  0  0  0
    0.0000   -4.5850    0.0000 C   0  0  0  0  0  0  0  0  0  0  0  0
    1.3515   -3.9342    0.0000 O   0  0  0  0  0  0  0  0  0  0  0  0
    1.6852   -2.4718    0.0000 C   0  0  0  0  0  0  0  0  0  0  0  0
    3.1476   -2.1380    0.0000 O   0  0  0  0  0  0  0  0  0  0  0  0
    0.7500   -1.2990    0.0000 C   0  0  0  0  0  0  0  0  0  0  0  0
    1.5000    0.0000    0.0000 C   0  0  0  0  0  0  0  0  0  0  0  0
    0.7500    1.2990    0.0000 C   0  0  0  0  0  0  0  0  0  0  0  0
    1.5000    2.5981    0.0000 O   0  0  0  0  0  0  0  0  0  0  0  0
   -0.7500    1.2990    0.0000 C   0  0  0  0  0  0  0  0  0  0  0  0
   -1.5000    0.0000    0.0000 C   0  0  0  0  0  0  0  0  0  0  0  0
   -0.7500   -1.2990    0.0000 C   0  0  0  0  0  0  0  0  0  0  0  0
   -2.2458   -1.1869    0.0000 C   0  0  0  0  0  0  0  0  0  0  0  0
   -1.6852   -2.4718    0.0000 C   0  0  0  0  0  0  0  0  0  0  0  0
   -3.1186   -2.0297    0.0000 C   0  0  0  0  0  0  0  0  0  0  0  0
   -4.2182   -3.0499    0.0000 C   0  0  0  0  0  0  0  0  0  0  0  0
   -3.8844   -4.5123    0.0000 C   0  0  0  0  0  0  0  0  0  0  0  0
   -5.3561   -4.2224    0.0000 C   0  0  0  0  0  0  0  0  0  0  0  0
   -2.4510   -4.9544    0.0000 C   0  0  0  0  0  0  0  0  0  0  0  0
   -2.4286   -6.4543    0.0000 C   0  0  0  0  0  0  0  0  0  0  0  0
   -3.8481   -6.9391    0.0000 C   0  0  0  0  0  0  0  0  0  0  0  0
   -4.7478   -5.7389    0.0000 C   0  0  0  0  0  0  0  0  0  0  0  0
   -6.2476   -5.7613    0.0000 C   0  0  0  0  0  0  0  0  0  0  0  0
   -6.9781   -7.0714    0.0000 C   0  0  0  0  0  0  0  0  0  0  0  0
   -7.0170   -4.4736    0.0000 C   0  0  0  0  0  0  0  0  0  0  0  0
   -6.2865   -3.1635    0.0000 O   0  0  0  0  0  0  0  0  0  0  0  0
   -8.5168   -4.4961    0.0000 C   0  0  0  0  0  0  0  0  0  0  0  0
   -9.2473   -5.8062    0.0000 O   0  0  0  0  0  0  0  0  0  0  0  0
   -9.2862   -3.2084    0.0000 C   0  0  0  0  0  0  0  0  0  0  0  0
  -10.7860   -3.2309    0.0000 C   0  0  0  0  0  0  0  0  0  0  0  0
   -8.5557   -1.8983    0.0000 C   0  0  0  0  0  0  0  0  0  0  0  0
   -9.3250   -0.6106    0.0000 C   0  0  0  0  0  0  0  0  0  0  0  0
   -7.0559   -1.8759    0.0000 C   0  0  0  0  0  0  0  0  0  0  0  0
  1  2  1  1
  2  3  1  0
  3  4  1  0
  4  5  2  0
  4  6  1  0
  6  7  1  6
  7  8  1  0
  8  9  1  1
  8 10  1  0
 10 11  1  0
 11 12  1  0
 12 13  1  6
 12 14  1  0
 14 15  1  6
 15 16  1  0
 16 17  1  0
 17 18  1  6
 17 19  1  0
 19 20  1  6
 20 21  1  0
 22 21  1  6
 22 23  1  0
 23 24  1  6
 23 25  1  0
 25 26  1  6
 25 27  1  0
 27 28  1  6
 27 29  1  0
 29 30  1  1
 29 31  1  0
 31 32  1  0
 31 33  1  0
 14  1  1  0
 22 17  1  0
 19  1  1  0
 12  6  1  0
M  END
