
     RDKit          2D

 94 95  0  0  0  0  0  0  0  0999 V2000
    5.2500   -1.2990    0.0000 C   0  0  0  0  0  0  0  0  0  0  0  0
    3.7500   -1.2990    0.0000 C   0  0  0  0  0  0  0  0  0  0  0  0
    3.0000   -2.5981    0.0000 O   0  0  0  0  0  0  0  0  0  0  0  0
    3.0000    0.0000    0.0000 N   0  0  0  0  0  0  0  0  0  0  0  0
    1.5000    0.0000    0.0000 C   0  0  0  0  0  0  0  0  0  0  0  0
    0.7500   -1.2990    0.0000 C   0  0  0  0  0  0  0  0  0  0  0  0
    1.5000   -2.5981    0.0000 O   0  0  0  0  0  0  0  0  0  0  0  0
    0.7500   -3.8971    0.0000 C   0  0  0  0  0  0  0  0  0  0  0  0
   -0.7500   -3.8971    0.0000 C   0  0  0  0  0  0  0  0  0  0  0  0
   -1.5000   -2.5981    0.0000 N   0  0  0  0  0  0  0  0  0  0  0  0
   -3.0000   -2.5981    0.0000 C   0  0  0  0  0  0  0  0  0  0  0  0
   -3.7500   -1.2990    0.0000 C   0  0  0  0  0  0  0  0  0  0  0  0
   -3.7500   -3.8971    0.0000 O   0  0  0  0  0  0  0  0  0  0  0  0
   -1.5000   -5.1962    0.0000 C   0  0  0  0  0  0  0  0  0  0  0  0
   -3.0000   -5.1962    0.0000 O   0  0  0  0  0  0  0  0  0  0  0  0
   -3.7500   -6.4952    0.0000 P   0  0  0  0  0  0  0  0  0  0  0  0
   -2.4510   -7.2452    0.0000 O   0  0  0  0  0  0  0  0  0  0  0  0
   -5.0490   -5.7452    0.0000 O   0  0  0  0  0  1  0  0  0  0  0  0
   -4.5000   -7.7942    0.0000 O   0  0  0  0  0  0  0  0  0  0  0  0
   -3.7500   -9.0933    0.0000 P   0  0  0  0  0  0  0  0  0  0  0  0
   -5.0490   -9.8433    0.0000 O   0  0  0  0  0  0  0  0  0  0  0  0
   -2.4510   -8.3433    0.0000 O   0  0  0  0  0  1  0  0  0  0  0  0
   -3.0000  -10.3923    0.0000 O   0  0  0  0  0  0  0  0  0  0  0  0
   -1.5000  -10.3923    0.0000 C   0  0  0  0  0  0  0  0  0  0  0  0
   -0.7500  -11.6913    0.0000 C   0  0  0  0  0  0  0  0  0  0  0  0
   -1.5000  -12.9904    0.0000 C   0  0  0  0  0  0  0  0  0  0  0  0
   -0.7500  -14.2894    0.0000 C   0  0  0  0  0  0  0  0  0  0  0  0
   -3.0000  -12.9904    0.0000 C   0  0  0  0  0  0  0  0  0  0  0  0
   -3.7500  -14.2894    0.0000 C   0  0  0  0  0  0  0  0  0  0  0  0
   -5.2500  -14.2894    0.0000 C   0  0  0  0  0  0  0  0  0  0  0  0
   -6.0000  -15.5885    0.0000 C   0  0  0  0  0  0  0  0  0  0  0  0
   -7.5000  -15.5885    0.0000 C   0  0  0  0  0  0  0  0  0  0  0  0
   -5.2500  -16.8875    0.0000 C   0  0  0  0  0  0  0  0  0  0  0  0
   -6.0000  -18.1865    0.0000 C   0  0  0  0  0  0  0  0  0  0  0  0
   -5.2500  -19.4856    0.0000 C   0  0  0  0  0  0  0  0  0  0  0  0
   -6.0000  -20.7846    0.0000 C   0  0  0  0  0  0  0  0  0  0  0  0
   -5.2500  -22.0836    0.0000 C   0  0  0  0  0  0  0  0  0  0  0  0
   -7.5000  -20.7846    0.0000 C   0  0  0  0  0  0  0  0  0  0  0  0
   -8.2500  -22.0836    0.0000 C   0  0  0  0  0  0  0  0  0  0  0  0
   -9.7500  -22.0836    0.0000 C   0  0  0  0  0  0  0  0  0  0  0  0
  -10.5000  -23.3827    0.0000 C   0  0  0  0  0  0  0  0  0  0  0  0
  -12.0000  -23.3827    0.0000 C   0  0  0  0  0  0  0  0  0  0  0  0
   -9.7500  -24.6817    0.0000 C   0  0  0  0  0  0  0  0  0  0  0  0
  -10.5000  -25.9808    0.0000 C   0  0  0  0  0  0  0  0  0  0  0  0
   -9.7500  -27.2798    0.0000 C   0  0  0  0  0  0  0  0  0  0  0  0
  -10.5000  -28.5788    0.0000 C   0  0  0  0  0  0  0  0  0  0  0  0
   -9.7500  -29.8779    0.0000 C   0  0  0  0  0  0  0  0  0  0  0  0
  -12.0000  -28.5788    0.0000 C   0  0  0  0  0  0  0  0  0  0  0  0
  -12.7500  -29.8779    0.0000 C   0  0  0  0  0  0  0  0  0  0  0  0
  -14.2500  -29.8779    0.0000 C   0  0  0  0  0  0  0  0  0  0  0  0
  -15.0000  -31.1769    0.0000 C   0  0  0  0  0  0  0  0  0  0  0  0
  -16.5000  -31.1769    0.0000 C   0  0  0  0  0  0  0  0  0  0  0  0
  -14.2500  -32.4760    0.0000 C   0  0  0  0  0  0  0  0  0  0  0  0
  -15.0000  -33.7750    0.0000 C   0  0  0  0  0  0  0  0  0  0  0  0
  -14.2500  -35.0740    0.0000 C   0  0  0  0  0  0  0  0  0  0  0  0
  -15.0000  -36.3731    0.0000 C   0  0  0  0  0  0  0  0  0  0  0  0
  -14.2500  -37.6721    0.0000 C   0  0  0  0  0  0  0  0  0  0  0  0
  -16.5000  -36.3731    0.0000 C   0  0  0  0  0  0  0  0  0  0  0  0
  -17.2500  -37.6721    0.0000 C   0  0  0  0  0  0  0  0  0  0  0  0
  -18.7500  -37.6721    0.0000 C   0  0  0  0  0  0  0  0  0  0  0  0
  -19.5000  -38.9711    0.0000 C   0  0  0  0  0  0  0  0  0  0  0  0
  -18.7500  -40.2702    0.0000 C   0  0  0  0  0  0  0  0  0  0  0  0
  -21.0000  -38.9711    0.0000 C   0  0  0  0  0  0  0  0  0  0  0  0
  -21.7500  -37.6721    0.0000 C   0  0  0  0  0  0  0  0  0  0  0  0
  -23.2500  -37.6721    0.0000 C   0  0  0  0  0  0  0  0  0  0  0  0
  -24.0000  -38.9711    0.0000 C   0  0  0  0  0  0  0  0  0  0  0  0
  -23.2500  -40.2702    0.0000 C   0  0  0  0  0  0  0  0  0  0  0  0
  -25.5000  -38.9711    0.0000 C   0  0  0  0  0  0  0  0  0  0  0  0
  -26.2500  -37.6721    0.0000 C   0  0  0  0  0  0  0  0  0  0  0  0
  -27.7500  -37.6721    0.0000 C   0  0  0  0  0  0  0  0  0  0  0  0
  -28.5000  -36.3731    0.0000 C   0  0  0  0  0  0  0  0  0  0  0  0
  -27.7500  -35.0740    0.0000 C   0  0  0  0  0  0  0  0  0  0  0  0
  -30.0000  -36.3731    0.0000 C   0  0  0  0  0  0  0  0  0  0  0  0
  -30.7500  -35.0740    0.0000 C   0  0  0  0  0  0  0  0  0  0  0  0
  -32.2500  -35.0740    0.0000 C   0  0  0  0  0  0  0  0  0  0  0  0
  -33.0000  -33.7750    0.0000 C   0  0  0  0  0  0  0  0  0  0  0  0
  -34.5000  -33.7750    0.0000 C   0  0  0  0  0  0  0  0  0  0  0  0
  -32.2500  -32.4760    0.0000 C   0  0  0  0  0  0  0  0  0  0  0  0
   -0.7500   -6.4952    0.0000 O   0  0  0  0  0  0  0  0  0  0  0  0
    0.7500   -6.4952    0.0000 C   0  0  0  0  0  0  0  0  0  0  0  0
    1.5000   -7.7942    0.0000 C   0  0  0  0  0  0  0  0  0  0  0  0
    1.5000   -5.1962    0.0000 C   0  0  0  0  0  0  0  0  0  0  0  0
    3.0000   -5.1962    0.0000 N   0  0  0  0  0  0  0  0  0  0  0  0
    3.7500   -6.4952    0.0000 C   0  0  0  0  0  0  0  0  0  0  0  0
    5.2500   -6.4952    0.0000 C   0  0  0  0  0  0  0  0  0  0  0  0
    3.0000   -7.7942    0.0000 O   0  0  0  0  0  0  0  0  0  0  0  0
   -0.7500   -1.2990    0.0000 O   0  0  0  0  0  0  0  0  0  0  0  0
   -1.5000    0.0000    0.0000 C   0  0  0  0  0  0  0  0  0  0  0  0
   -3.0000    0.0000    0.0000 C   0  0  0  0  0  0  0  0  0  0  0  0
   -3.7500    1.2990    0.0000 O   0  0  0  0  0  0  0  0  0  0  0  0
   -0.7500    1.2990    0.0000 C   0  0  0  0  0  0  0  0  0  0  0  0
   -1.5000    2.5981    0.0000 O   0  0  0  0  0  0  0  0  0  0  0  0
    0.7500    1.2990    0.0000 C   0  0  0  0  0  0  0  0  0  0  0  0
    1.5000    2.5981    0.0000 O   0  0  0  0  0  0  0  0  0  0  0  0
  1  2  1  0
  2  3  2  0
  2  4  1  0
  5  4  1  1
  5  6  1  0
  6  7  1  1
  8  7  1  1
  8  9  1  0
  9 10  1  6
 10 11  1  0
 11 12  1  0
 11 13  2  0
  9 14  1  0
 14 15  1  6
 15 16  1  0
 16 17  2  0
 16 18  1  0
 16 19  1  0
 19 20  1  0
 20 21  2  0
 20 22  1  0
 20 23  1  0
 23 24  1  0
 24 25  1  0
 25 26  2  0
 26 27  1  0
 26 28  1  0
 28 29  1  0
 29 30  1  0
 30 31  2  0
 31 32  1  0
 31 33  1  0
 33 34  1  0
 34 35  1  0
 35 36  2  0
 36 37  1  0
 36 38  1  0
 38 39  1  0
 39 40  1  0
 40 41  2  0
 41 42  1  0
 41 43  1  0
 43 44  1  0
 44 45  1  0
 45 46  2  0
 46 47  1  0
 46 48  1  0
 48 49  1  0
 49 50  1  0
 50 51  2  0
 51 52  1  0
 51 53  1  0
 53 54  1  0
 54 55  1  0
 55 56  2  0
 56 57  1  0
 56 58  1  0
 58 59  1  0
 59 60  1  0
 60 61  2  0
 61 62  1  0
 61 63  1  0
 63 64  1  0
 64 65  1  0
 65 66  2  0
 66 67  1  0
 66 68  1  0
 68 69  1  0
 69 70  1  0
 70 71  2  0
 71 72  1  0
 71 73  1  0
 73 74  1  0
 74 75  1  0
 75 76  2  0
 76 77  1  0
 76 78  1  0
 14 79  1  0
 79 80  1  0
 80 81  1  1
 80 82  1  0
 82 83  1  6
 83 84  1  0
 84 85  1  0
 84 86  2  0
  6 87  1  0
 87 88  1  0
 88 89  1  6
 89 90  1  0
 88 91  1  0
 91 92  1  6
 91 93  1  0
 93 94  1  6
 93  5  1  0
 82  8  1  0
M  CHG  2  18  -1  22  -1
M  END
