
     RDKit          2D

  8 12  0  0  0  0  0  0  0  0999 V2000
    1.0607    0.0000    0.0000 S   0  0  0  0  0  4  0  0  0  0  0  0
   -0.0000   -1.0607    0.0000 Fe  0  0  0  0  0  3  0  0  0  0  0  0
   -1.0607    0.0000    0.0000 S   0  0  0  0  0  4  0  0  0  0  0  0
    0.0000    1.0607    0.0000 Fe  0  0  0  0  0  3  0  0  0  0  0  0
    1.0607    2.1213    0.0000 S   0  0  0  0  0  4  0  0  0  0  0  0
    2.1213    1.0607    0.0000 Fe  0  0  0  0  0  3  0  0  0  0  0  0
   -1.0607   -2.1213    0.0000 S   0  0  0  0  0  4  0  0  0  0  0  0
   -2.1213   -1.0607    0.0000 Fe  0  0  0  0  0  3  0  0  0  0  0  0
  1  2  1  0
  2  3  1  0
  3  4  1  0
  4  5  1  0
  5  6  1  0
  6  7  1  0
  7  8  1  0
  4  1  1  0
  8  5  1  0
  6  1  1  0
  7  2  1  0
  8  3  1  0
M  CHG  1   8   1
M  RAD  1   8   2
M  END
