
     RDKit          2D

 75 81  0  0  0  0  0  0  0  0999 V2000
    0.7500   -1.2990    0.0000 C   0  0  0  0  0  0  0  0  0  0  0  0
    1.5000    0.0000    0.0000 C   0  0  0  0  0  0  0  0  0  0  0  0
    0.7500    1.2990    0.0000 C   0  0  0  0  0  0  0  0  0  0  0  0
    1.5000    2.5981    0.0000 O   0  0  0  0  0  0  0  0  0  0  0  0
   -0.7500    1.2990    0.0000 C   0  0  0  0  0  0  0  0  0  0  0  0
   -1.5000    0.0000    0.0000 C   0  0  0  0  0  0  0  0  0  0  0  0
   -0.7500   -1.2990    0.0000 C   0  0  0  0  0  0  0  0  0  0  0  0
   -2.2500   -1.2990    0.0000 C   0  0  0  0  0  0  0  0  0  0  0  0
   -1.5000   -2.5981    0.0000 C   0  0  0  0  0  0  0  0  0  0  0  0
   -3.0000   -2.5981    0.0000 C   0  0  0  0  0  0  0  0  0  0  0  0
   -3.7500   -3.8971    0.0000 C   0  0  0  0  0  0  0  0  0  0  0  0
   -3.0000   -5.1962    0.0000 C   0  0  0  0  0  0  0  0  0  0  0  0
   -4.4918   -5.3529    0.0000 C   0  0  0  0  0  0  0  0  0  0  0  0
   -3.4635   -6.6227    0.0000 C   0  0  0  0  0  0  0  0  0  0  0  0
   -4.8901   -7.0863    0.0000 C   0  0  0  0  0  0  0  0  0  0  0  0
   -5.2020   -8.5535    0.0000 C   0  0  0  0  0  0  0  0  0  0  0  0
   -6.0048   -6.0826    0.0000 C   0  0  0  0  0  0  0  0  0  0  0  0
   -7.4314   -6.5461    0.0000 C   0  0  0  0  0  0  0  0  0  0  0  0
   -8.5461   -5.5424    0.0000 C   0  0  0  0  0  0  0  0  0  0  0  0
   -9.9727   -6.0059    0.0000 O   0  0  0  0  0  0  0  0  0  0  0  0
   -8.2343   -4.0752    0.0000 S   0  0  0  0  0  0  0  0  0  0  0  0
   -9.3490   -3.0715    0.0000 C   0  0  0  0  0  0  0  0  0  0  0  0
   -9.0371   -1.6043    0.0000 C   0  0  0  0  0  0  0  0  0  0  0  0
  -10.1518   -0.6006    0.0000 N   0  0  0  0  0  0  0  0  0  0  0  0
   -9.8400    0.8667    0.0000 C   0  0  0  0  0  0  0  0  0  0  0  0
   -8.4134    1.3302    0.0000 O   0  0  0  0  0  0  0  0  0  0  0  0
  -10.9547    1.8704    0.0000 C   0  0  0  0  0  0  0  0  0  0  0  0
  -10.6428    3.3376    0.0000 C   0  0  0  0  0  0  0  0  0  0  0  0
  -11.7575    4.3413    0.0000 N   0  0  0  0  0  0  0  0  0  0  0  0
  -11.4457    5.8085    0.0000 C   0  0  0  0  0  0  0  0  0  0  0  0
  -10.0191    6.2720    0.0000 O   0  0  0  0  0  0  0  0  0  0  0  0
  -12.5604    6.8122    0.0000 C   0  0  0  0  0  0  0  0  0  0  0  0
  -13.9870    6.3487    0.0000 O   0  0  0  0  0  0  0  0  0  0  0  0
  -12.2485    8.2794    0.0000 C   0  0  0  0  0  0  0  0  0  0  0  0
  -13.7157    8.5913    0.0000 C   0  0  0  0  0  0  0  0  0  0  0  0
  -10.7813    7.9675    0.0000 C   0  0  0  0  0  0  0  0  0  0  0  0
  -11.9366    9.7466    0.0000 C   0  0  0  0  0  0  0  0  0  0  0  0
  -10.5101   10.2102    0.0000 O   0  0  0  0  0  0  0  0  0  0  0  0
  -10.1982   11.6774    0.0000 P   0  0  0  0  0  0  0  0  0  0  0  0
  -11.6654   11.9892    0.0000 O   0  0  0  0  0  0  0  0  0  0  0  0
   -8.7310   11.3655    0.0000 O   0  0  0  0  0  1  0  0  0  0  0  0
   -9.8863   13.1446    0.0000 O   0  0  0  0  0  0  0  0  0  0  0  0
  -11.0010   14.1483    0.0000 P   0  0  0  0  0  0  0  0  0  0  0  0
   -9.9973   15.2630    0.0000 O   0  0  0  0  0  0  0  0  0  0  0  0
  -12.0047   13.0336    0.0000 O   0  0  0  0  0  1  0  0  0  0  0  0
  -12.1158   15.1520    0.0000 O   0  0  0  0  0  0  0  0  0  0  0  0
  -13.5423   14.6885    0.0000 C   0  0  0  0  0  0  0  0  0  0  0  0
  -14.6571   15.6922    0.0000 C   0  0  0  0  0  0  0  0  0  0  0  0
  -16.1243   15.3803    0.0000 O   0  0  0  0  0  0  0  0  0  0  0  0
  -16.8743   16.6793    0.0000 C   0  0  0  0  0  0  0  0  0  0  0  0
  -18.3661   16.8361    0.0000 N   0  0  0  0  0  0  0  0  0  0  0  0
  -19.3698   15.7214    0.0000 C   0  0  0  0  0  0  0  0  0  0  0  0
  -20.7401   16.3315    0.0000 N   0  0  0  0  0  0  0  0  0  0  0  0
  -20.5833   17.8233    0.0000 C   0  0  0  0  0  0  0  0  0  0  0  0
  -19.1161   18.1352    0.0000 C   0  0  0  0  0  0  0  0  0  0  0  0
  -18.6525   19.5617    0.0000 N   0  0  0  0  0  0  0  0  0  0  0  0
  -19.6562   20.6765    0.0000 C   0  0  0  0  0  0  0  0  0  0  0  0
  -21.1235   20.3646    0.0000 N   0  0  0  0  0  0  0  0  0  0  0  0
  -21.5870   18.9380    0.0000 C   0  0  0  0  0  0  0  0  0  0  0  0
  -23.0542   18.6261    0.0000 N   0  0  0  0  0  0  0  0  0  0  0  0
  -15.8706   17.7941    0.0000 C   0  0  0  0  0  0  0  0  0  0  0  0
  -16.1825   19.2613    0.0000 O   0  0  0  0  0  0  0  0  0  0  0  0
  -14.5003   17.1839    0.0000 C   0  0  0  0  0  0  0  0  0  0  0  0
  -13.2012   17.9339    0.0000 O   0  0  0  0  0  0  0  0  0  0  0  0
  -13.2012   19.4339    0.0000 P   0  0  0  0  0  0  0  0  0  0  0  0
  -11.7012   19.4339    0.0000 O   0  0  0  0  0  0  0  0  0  0  0  0
  -14.7012   19.4339    0.0000 O   0  0  0  0  0  1  0  0  0  0  0  0
  -13.2012   20.9339    0.0000 O   0  0  0  0  0  1  0  0  0  0  0  0
   -2.2500   -7.5044    0.0000 C   0  0  0  0  0  0  0  0  0  0  0  0
   -1.0365   -6.6227    0.0000 C   0  0  0  0  0  0  0  0  0  0  0  0
   -1.5000   -5.1962    0.0000 C   0  0  0  0  0  0  0  0  0  0  0  0
   -0.7500   -3.8971    0.0000 C   0  0  0  0  0  0  0  0  0  0  0  0
    0.7500   -3.8971    0.0000 C   0  0  0  0  0  0  0  0  0  0  0  0
    1.5000   -5.1962    0.0000 O   0  0  0  0  0  0  0  0  0  0  0  0
    1.5000   -2.5981    0.0000 C   0  0  0  0  0  0  0  0  0  0  0  0
  1  2  1  1
  2  3  1  0
  3  4  1  1
  3  5  1  0
  5  6  1  0
  6  7  1  0
  7  8  1  6
  7  9  1  0
  9 10  1  6
 10 11  1  0
 11 12  1  0
 12 13  1  6
 12 14  1  0
 14 15  1  0
 15 16  1  6
 15 17  1  0
 17 18  1  0
 18 19  1  0
 19 20  2  0
 19 21  1  0
 21 22  1  0
 22 23  1  0
 23 24  1  0
 24 25  1  0
 25 26  2  0
 25 27  1  0
 27 28  1  0
 28 29  1  0
 29 30  1  0
 30 31  2  0
 30 32  1  0
 32 33  1  6
 32 34  1  0
 34 35  1  0
 34 36  1  0
 34 37  1  0
 37 38  1  0
 38 39  1  0
 39 40  2  0
 39 41  1  0
 39 42  1  0
 42 43  1  0
 43 44  2  0
 43 45  1  0
 43 46  1  0
 46 47  1  0
 48 47  1  1
 48 49  1  0
 49 50  1  0
 50 51  1  1
 51 52  1  0
 52 53  2  0
 53 54  1  0
 54 55  2  0
 55 56  1  0
 56 57  2  0
 57 58  1  0
 58 59  2  0
 59 60  1  0
 50 61  1  0
 61 62  1  6
 61 63  1  0
 63 64  1  6
 64 65  1  0
 65 66  2  0
 65 67  1  0
 65 68  1  0
 14 69  1  6
 69 70  1  0
 71 70  1  6
 71 72  1  0
 72 73  1  1
 73 74  1  1
 73 75  1  0
  7  1  1  0
 72  9  1  0
 75  1  1  0
 71 12  1  0
 63 48  1  0
 55 51  1  0
 59 54  1  0
M  CHG  4  41  -1  45  -1  67  -1  68  -1
M  END
