
     RDKit          2D

 48 52  0  0  0  0  0  0  0  0999 V2000
    2.7760    0.0000    0.0000 C   0  0  0  0  0  0  0  0  0  0  0  0
    1.2760    0.0000    0.0000 C   0  0  0  0  0  0  0  0  0  0  0  0
    0.3943    1.2135    0.0000 C   0  0  0  0  0  0  0  0  0  0  0  0
    0.7561    3.1293    0.0000 C   0  0  0  0  0  0  0  0  0  0  0  0
    0.2369    4.5365    0.0000 C   0  0  0  0  0  0  0  0  0  0  0  0
    0.7004    5.9631    0.0000 C   0  0  0  0  0  0  0  0  0  0  0  0
    2.1270    6.4267    0.0000 C   0  0  0  0  0  0  0  0  0  0  0  0
   -0.5131    6.8448    0.0000 C   0  0  0  0  0  0  0  0  0  0  0  0
   -0.5131    8.3448    0.0000 C   0  0  0  0  0  0  0  0  0  0  0  0
   -1.8121    9.0948    0.0000 C   0  0  0  0  0  0  0  0  0  0  0  0
   -1.8121   10.5948    0.0000 C   0  0  0  0  0  0  0  0  0  0  0  0
   -0.5131   11.3448    0.0000 O   0  0  0  0  0  0  0  0  0  0  0  0
   -3.1112   11.3448    0.0000 O   0  0  0  0  0  1  0  0  0  0  0  0
   -2.1435    6.2660    0.0000 C   0  0  0  0  0  0  0  0  0  0  0  0
   -3.6424    6.3249    0.0000 C   0  0  0  0  0  0  0  0  0  0  0  0
   -5.0496    5.8057    0.0000 C   0  0  0  0  0  0  0  0  0  0  0  0
   -6.4762    6.2693    0.0000 C   0  0  0  0  0  0  0  0  0  0  0  0
   -6.9398    7.6958    0.0000 C   0  0  0  0  0  0  0  0  0  0  0  0
   -5.9361    8.8106    0.0000 C   0  0  0  0  0  0  0  0  0  0  0  0
   -6.3996   10.2371    0.0000 C   0  0  0  0  0  0  0  0  0  0  0  0
   -7.8668   10.5490    0.0000 O   0  0  0  0  0  0  0  0  0  0  0  0
   -5.3959   11.3519    0.0000 O   0  0  0  0  0  1  0  0  0  0  0  0
   -7.3579    5.0557    0.0000 C   0  0  0  0  0  0  0  0  0  0  0  0
   -8.8579    5.0557    0.0000 C   0  0  0  0  0  0  0  0  0  0  0  0
   -6.7791    3.4253    0.0000 C   0  0  0  0  0  0  0  0  0  0  0  0
   -6.8380    1.9265    0.0000 C   0  0  0  0  0  0  0  0  0  0  0  0
   -6.3188    0.5192    0.0000 C   0  0  0  0  0  0  0  0  0  0  0  0
   -6.7824   -0.9074    0.0000 C   0  0  0  0  0  0  0  0  0  0  0  0
   -8.2089   -1.3709    0.0000 C   0  0  0  0  0  0  0  0  0  0  0  0
   -9.3237   -0.3672    0.0000 C   0  0  0  0  0  0  0  0  0  0  0  0
  -10.7502   -0.8308    0.0000 C   0  0  0  0  0  0  0  0  0  0  0  0
  -11.0621   -2.2980    0.0000 O   0  0  0  0  0  0  0  0  0  0  0  0
  -11.8650    0.1729    0.0000 O   0  0  0  0  0  1  0  0  0  0  0  0
   -5.5688   -1.7891    0.0000 C   0  0  0  0  0  0  0  0  0  0  0  0
   -5.5688   -3.2891    0.0000 C   0  0  0  0  0  0  0  0  0  0  0  0
   -3.9384   -1.2103    0.0000 C   0  0  0  0  0  0  0  0  0  0  0  0
   -2.4396   -1.2692    0.0000 C   0  0  0  0  0  0  0  0  0  0  0  0
   -1.0323   -0.7500    0.0000 C   0  0  0  0  0  0  0  0  0  0  0  0
    0.3943   -1.2135    0.0000 C   0  0  0  0  0  0  0  0  0  0  0  0
    0.8578   -2.6401    0.0000 C   0  0  0  0  0  0  0  0  0  0  0  0
   -0.1459   -3.7548    0.0000 C   0  0  0  0  0  0  0  0  0  0  0  0
    0.3177   -5.1814    0.0000 C   0  0  0  0  0  0  0  0  0  0  0  0
    1.7849   -5.4933    0.0000 O   0  0  0  0  0  0  0  0  0  0  0  0
   -0.6860   -6.2961    0.0000 O   0  0  0  0  0  1  0  0  0  0  0  0
   -1.0323    0.7500    0.0000 N   0  0  0  0  0  0  0  0  0  0  0  0
   -5.3006   -0.5823    0.0000 N   0  0  0  0  0  0  0  0  0  0  0  0
   -6.1511    4.7875    0.0000 N   0  0  0  0  0  0  0  0  0  0  0  0
   -0.7813    5.6380    0.0000 N   0  0  0  0  0  0  0  0  0  0  0  0
  1  2  1  0
  2  3  2  0
  3  4  1  0
  4  5  1  0
  5  6  2  0
  6  7  1  0
  6  8  1  0
  8  9  1  0
  9 10  1  0
 10 11  1  0
 11 12  2  0
 11 13  1  0
  8 14  2  0
 14 15  1  0
 15 16  1  0
 16 17  2  0
 17 18  1  0
 18 19  1  0
 19 20  1  0
 20 21  2  0
 20 22  1  0
 17 23  1  0
 23 24  1  0
 23 25  2  0
 25 26  1  0
 26 27  1  0
 27 28  2  0
 28 29  1  0
 29 30  1  0
 30 31  1  0
 31 32  2  0
 31 33  1  0
 28 34  1  0
 34 35  1  0
 34 36  2  0
 36 37  1  0
 37 38  1  0
 38 39  2  0
 39 40  1  0
 40 41  1  0
 41 42  1  0
 42 43  2  0
 42 44  1  0
 38 45  1  0
 36 46  1  0
 25 47  1  0
 14 48  1  0
 39  2  1  0
 45  3  1  0
 48  5  1  0
 47 16  1  0
 46 27  1  0
M  CHG  4  13  -1  22  -1  33  -1  44  -1
M  END
