
     RDKit          2D

 36 38  0  0  0  0  0  0  0  0999 V2000
    5.7649   -9.5868    0.0000 C   0  0  0  0  0  0  0  0  0  0  0  0
    6.5149   -8.2877    0.0000 C   0  0  0  0  0  0  0  0  0  0  0  0
    5.7649   -6.9887    0.0000 O   0  0  0  0  0  0  0  0  0  0  0  0
    8.0149   -8.2877    0.0000 C   0  0  0  0  0  0  0  0  0  0  0  0
    8.7649   -6.9887    0.0000 O   0  0  0  0  0  0  0  0  0  0  0  0
    4.2732   -9.7436    0.0000 O   0  0  0  0  0  0  0  0  0  0  0  0
    3.9613  -11.2108    0.0000 C   0  0  0  0  0  0  0  0  0  0  0  0
    2.5910  -11.8209    0.0000 O   0  0  0  0  0  0  0  0  0  0  0  0
    1.3774  -10.9392    0.0000 P   0  0  0  0  0  0  0  0  0  0  0  0
    0.4958  -12.1527    0.0000 O   0  0  0  0  0  0  0  0  0  0  0  0
    2.2591   -9.7257    0.0000 O   0  0  0  0  0  1  0  0  0  0  0  0
    0.1639  -10.0575    0.0000 O   0  0  0  0  0  0  0  0  0  0  0  0
    0.3207   -8.5658    0.0000 P   0  0  0  0  0  0  0  0  0  0  0  0
    1.8125   -8.7226    0.0000 O   0  0  0  0  0  0  0  0  0  0  0  0
   -1.1711   -8.4090    0.0000 O   0  0  0  0  0  1  0  0  0  0  0  0
    0.4775   -7.0740    0.0000 O   0  0  0  0  0  0  0  0  0  0  0  0
    1.8478   -6.4639    0.0000 C   0  0  0  0  0  0  0  0  0  0  0  0
    2.0046   -4.9721    0.0000 C   0  0  0  0  0  0  0  0  0  0  0  0
    0.8899   -3.9684    0.0000 O   0  0  0  0  0  0  0  0  0  0  0  0
    1.5000   -2.5981    0.0000 C   0  0  0  0  0  0  0  0  0  0  0  0
    0.7500   -1.2990    0.0000 N   0  0  0  0  0  0  0  0  0  0  0  0
    1.5000    0.0000    0.0000 C   0  0  0  0  0  0  0  0  0  0  0  0
    0.7500    1.2990    0.0000 C   0  0  0  0  0  0  0  0  0  0  0  0
   -0.7500    1.2990    0.0000 C   0  0  0  0  0  0  0  0  0  0  0  0
   -1.5000    2.5981    0.0000 O   0  0  0  0  0  0  0  0  0  0  0  0
   -1.5000    0.0000    0.0000 N   0  0  0  0  0  0  0  0  0  0  0  0
   -0.7500   -1.2990    0.0000 C   0  0  0  0  0  0  0  0  0  0  0  0
   -1.5000   -2.5981    0.0000 O   0  0  0  0  0  0  0  0  0  0  0  0
    2.9918   -2.7549    0.0000 C   0  0  0  0  0  0  0  0  0  0  0  0
    3.9955   -1.6402    0.0000 O   0  0  0  0  0  0  0  0  0  0  0  0
    3.3037   -4.2221    0.0000 C   0  0  0  0  0  0  0  0  0  0  0  0
    4.6740   -4.8322    0.0000 O   0  0  0  0  0  0  0  0  0  0  0  0
    5.2603  -11.9608    0.0000 C   0  0  0  0  0  0  0  0  0  0  0  0
    5.4171  -13.4526    0.0000 O   0  0  0  0  0  0  0  0  0  0  0  0
    6.3750  -10.9571    0.0000 C   0  0  0  0  0  0  0  0  0  0  0  0
    7.8423  -11.2690    0.0000 O   0  0  0  0  0  0  0  0  0  0  0  0
  1  2  1  0
  2  3  1  6
  2  4  1  0
  4  5  1  0
  1  6  1  1
  6  7  1  0
  7  8  1  1
  8  9  1  0
  9 10  2  0
  9 11  1  0
  9 12  1  0
 12 13  1  0
 13 14  2  0
 13 15  1  0
 13 16  1  0
 16 17  1  0
 18 17  1  1
 18 19  1  0
 19 20  1  0
 20 21  1  1
 21 22  1  0
 22 23  2  0
 23 24  1  0
 24 25  2  0
 24 26  1  0
 26 27  1  0
 27 28  2  0
 20 29  1  0
 29 30  1  6
 29 31  1  0
 31 32  1  6
  7 33  1  0
 33 34  1  1
 33 35  1  0
 35 36  1  6
 35  1  1  0
 31 18  1  0
 27 21  1  0
M  CHG  2  11  -1  15  -1
M  END
