
     RDKit          2D

 32 34  0  0  0  0  0  0  0  0999 V2000
   -2.9499    4.2246    0.0000 N   0  0  0  0  0  0  0  0  0  0  0  0
   -1.8351    3.2209    0.0000 C   0  0  0  0  0  0  0  0  0  0  0  0
   -2.1470    1.7537    0.0000 N   0  0  0  0  0  0  0  0  0  0  0  0
   -1.0323    0.7500    0.0000 C   0  0  0  0  0  0  0  0  0  0  0  0
    0.3943    1.2135    0.0000 C   0  0  0  0  0  0  0  0  0  0  0  0
    1.2760    0.0000    0.0000 N   0  0  0  0  0  0  0  0  0  0  0  0
    0.3943   -1.2135    0.0000 C   0  0  0  0  0  0  0  0  0  0  0  0
   -1.0323   -0.7500    0.0000 N   0  0  0  0  0  0  0  0  0  0  0  0
   -2.2458   -1.6317    0.0000 C   0  0  0  0  0  0  0  0  0  0  0  0
   -2.2458   -3.1317    0.0000 O   0  0  0  0  0  0  0  0  0  0  0  0
   -3.6724   -3.5952    0.0000 C   0  0  0  0  0  0  0  0  0  0  0  0
   -4.1359   -5.0218    0.0000 C   0  0  0  0  0  0  0  0  0  0  0  0
   -5.6031   -5.3337    0.0000 O   0  0  0  0  0  0  0  0  0  0  0  0
   -6.0667   -6.7602    0.0000 P   0  0  0  0  0  0  0  0  0  0  0  0
   -4.6401   -7.2238    0.0000 O   0  0  0  0  0  0  0  0  0  0  0  0
   -7.4933   -6.2967    0.0000 O   0  0  0  0  0  1  0  0  0  0  0  0
   -6.5302   -8.1868    0.0000 O   0  0  0  0  0  0  0  0  0  0  0  0
   -5.5265   -9.3015    0.0000 P   0  0  0  0  0  0  0  0  0  0  0  0
   -6.6412  -10.3052    0.0000 O   0  0  0  0  0  0  0  0  0  0  0  0
   -4.4118   -8.2978    0.0000 O   0  0  0  0  0  1  0  0  0  0  0  0
   -4.5228  -10.4163    0.0000 O   0  0  0  0  0  0  0  0  0  0  0  0
   -3.0556  -10.1044    0.0000 P   0  0  0  0  0  0  0  0  0  0  0  0
   -2.7437  -11.5716    0.0000 O   0  0  0  0  0  0  0  0  0  0  0  0
   -3.3674   -8.6372    0.0000 O   0  0  0  0  0  1  0  0  0  0  0  0
   -1.5884   -9.7925    0.0000 O   0  0  0  0  0  1  0  0  0  0  0  0
   -4.5541   -2.3817    0.0000 C   0  0  0  0  0  0  0  0  0  0  0  0
   -6.0541   -2.3817    0.0000 O   0  0  0  0  0  0  0  0  0  0  0  0
   -3.6724   -1.1682    0.0000 C   0  0  0  0  0  0  0  0  0  0  0  0
   -4.1359    0.2584    0.0000 O   0  0  0  0  0  0  0  0  0  0  0  0
    0.7062    2.6807    0.0000 C   0  0  0  0  0  0  0  0  0  0  0  0
    2.1328    3.1443    0.0000 O   0  0  0  0  0  0  0  0  0  0  0  0
   -0.4086    3.6844    0.0000 N   0  0  0  0  0  0  0  0  0  0  0  0
  1  2  1  0
  2  3  2  0
  3  4  1  0
  4  5  2  0
  5  6  1  0
  6  7  2  0
  7  8  1  0
  9  8  1  6
  9 10  1  0
 10 11  1  0
 11 12  1  6
 12 13  1  0
 13 14  1  0
 14 15  2  0
 14 16  1  0
 14 17  1  0
 17 18  1  0
 18 19  2  0
 18 20  1  0
 18 21  1  0
 21 22  1  0
 22 23  2  0
 22 24  1  0
 22 25  1  0
 11 26  1  0
 26 27  1  1
 26 28  1  0
 28 29  1  1
  5 30  1  0
 30 31  2  0
 30 32  1  0
 32  2  1  0
  8  4  1  0
 28  9  1  0
M  CHG  4  16  -1  20  -1  24  -1  25  -1
M  END
