
     RDKit          2D

 53 58  0  0  0  0  0  0  0  0999 V2000
    3.0000    0.0000    0.0000 C   0  0  0  0  0  0  0  0  0  0  0  0
    1.5000    0.0000    0.0000 C   0  0  0  0  0  0  0  0  0  0  0  0
    0.7500   -1.2990    0.0000 C   0  0  0  0  0  0  0  0  0  0  0  0
   -0.7500   -1.2990    0.0000 C   0  0  0  0  0  0  0  0  0  0  0  0
   -1.5000    0.0000    0.0000 C   0  0  0  0  0  0  0  0  0  0  0  0
   -0.7500    1.2990    0.0000 C   0  0  0  0  0  0  0  0  0  0  0  0
    0.7500    1.2990    0.0000 C   0  0  0  0  0  0  0  0  0  0  0  0
    1.5000    2.5981    0.0000 C   0  0  0  0  0  0  0  0  0  0  0  0
   -3.0000    0.0000    0.0000 N   0  0  0  0  0  0  0  0  0  0  0  0
   -3.7500    1.2990    0.0000 C   0  0  0  0  0  0  0  0  0  0  0  0
   -3.0000    2.5981    0.0000 C   0  0  0  0  0  0  0  0  0  0  0  0
   -1.5000    2.5981    0.0000 O   0  0  0  0  0  0  0  0  0  0  0  0
   -3.7500    3.8971    0.0000 C   0  0  0  0  0  0  0  0  0  0  0  0
   -5.2500    3.8971    0.0000 O   0  0  0  0  0  0  0  0  0  0  0  0
   -3.0000    5.1962    0.0000 C   0  0  0  0  0  0  0  0  0  0  0  0
   -1.5000    5.1962    0.0000 O   0  0  0  0  0  0  0  0  0  0  0  0
   -3.7500    6.4952    0.0000 C   0  0  0  0  0  0  0  0  0  0  0  0
   -3.0000    7.7942    0.0000 O   0  0  0  0  0  0  0  0  0  0  0  0
   -3.7500    9.0933    0.0000 P   0  0  0  0  0  0  0  0  0  0  0  0
   -5.0490    8.3433    0.0000 O   0  0  0  0  0  0  0  0  0  0  0  0
   -2.4510    9.8433    0.0000 O   0  0  0  0  0  1  0  0  0  0  0  0
   -4.5000   10.3923    0.0000 O   0  0  0  0  0  0  0  0  0  0  0  0
   -6.0000   10.3923    0.0000 P   0  0  0  0  0  0  0  0  0  0  0  0
   -6.0000   11.8923    0.0000 O   0  0  0  0  0  0  0  0  0  0  0  0
   -6.0000    8.8923    0.0000 O   0  0  0  0  0  1  0  0  0  0  0  0
   -7.5000   10.3923    0.0000 O   0  0  0  0  0  0  0  0  0  0  0  0
   -8.2500    9.0933    0.0000 C   0  0  0  0  0  0  0  0  0  0  0  0
   -9.7500    9.0933    0.0000 C   0  0  0  0  0  0  0  0  0  0  0  0
  -10.6317    7.8797    0.0000 O   0  0  0  0  0  0  0  0  0  0  0  0
  -12.0583    8.3433    0.0000 C   0  0  0  0  0  0  0  0  0  0  0  0
  -13.2718    7.4616    0.0000 N   0  0  0  0  0  0  0  0  0  0  0  0
  -13.2718    5.9616    0.0000 C   0  0  0  0  0  0  0  0  0  0  0  0
  -14.6984    5.4981    0.0000 N   0  0  0  0  0  0  0  0  0  0  0  0
  -15.5801    6.7116    0.0000 C   0  0  0  0  0  0  0  0  0  0  0  0
  -14.6984    7.9251    0.0000 C   0  0  0  0  0  0  0  0  0  0  0  0
  -15.3085    9.2954    0.0000 N   0  0  0  0  0  0  0  0  0  0  0  0
  -16.8003    9.4522    0.0000 C   0  0  0  0  0  0  0  0  0  0  0  0
  -17.6819    8.2387    0.0000 N   0  0  0  0  0  0  0  0  0  0  0  0
  -17.0718    6.8684    0.0000 C   0  0  0  0  0  0  0  0  0  0  0  0
  -17.9535    5.6549    0.0000 N   0  0  0  0  0  0  0  0  0  0  0  0
  -12.0583    9.8433    0.0000 C   0  0  0  0  0  0  0  0  0  0  0  0
  -13.2718   10.7249    0.0000 O   0  0  0  0  0  0  0  0  0  0  0  0
  -10.6317   10.3068    0.0000 C   0  0  0  0  0  0  0  0  0  0  0  0
  -10.1682   11.7334    0.0000 O   0  0  0  0  0  0  0  0  0  0  0  0
   -3.7500   -1.2990    0.0000 C   0  0  0  0  0  0  0  0  0  0  0  0
   -5.2500   -1.2990    0.0000 N   0  0  0  0  0  0  0  0  0  0  0  0
   -6.0000   -2.5981    0.0000 C   0  0  0  0  0  0  0  0  0  0  0  0
   -7.5000   -2.5981    0.0000 O   0  0  0  0  0  0  0  0  0  0  0  0
   -5.2500   -3.8971    0.0000 N   0  0  0  0  0  2  0  0  0  0  0  0
   -3.7500   -3.8971    0.0000 C   0  0  0  0  0  0  0  0  0  0  0  0
   -3.0000   -5.1962    0.0000 O   0  0  0  0  0  0  0  0  0  0  0  0
   -3.0000   -2.5981    0.0000 C   0  0  0  0  0  0  0  0  0  0  0  0
   -1.5000   -2.5981    0.0000 N   0  0  0  0  0  0  0  0  0  0  0  0
  1  2  1  0
  2  3  2  0
  3  4  1  0
  4  5  2  0
  5  6  1  0
  6  7  2  0
  7  8  1  0
  5  9  1  0
  9 10  1  0
 10 11  1  0
 11 12  1  1
 11 13  1  0
 13 14  1  6
 13 15  1  0
 15 16  1  1
 15 17  1  0
 17 18  1  0
 18 19  1  0
 19 20  2  0
 19 21  1  0
 19 22  1  0
 22 23  1  0
 23 24  2  0
 23 25  1  0
 23 26  1  0
 26 27  1  0
 28 27  1  1
 28 29  1  0
 29 30  1  0
 30 31  1  1
 31 32  1  0
 32 33  2  0
 33 34  1  0
 34 35  2  0
 35 36  1  0
 36 37  2  0
 37 38  1  0
 38 39  2  0
 39 40  1  0
 30 41  1  0
 41 42  1  6
 41 43  1  0
 43 44  1  6
  9 45  1  0
 45 46  2  0
 46 47  1  0
 47 48  2  0
 47 49  1  0
 49 50  1  0
 50 51  2  0
 50 52  1  0
 52 53  2  0
  7  2  1  0
 43 28  1  0
 52 45  1  0
 53  4  1  0
 35 31  1  0
 39 34  1  0
M  CHG  3  21  -1  25  -1  49  -1
M  END
