
     RDKit          2D

 44 48  0  0  0  0  0  0  0  0999 V2000
   20.5932   -9.0405    0.0000 N   0  0  0  0  0  0  0  0  0  0  0  0
   19.2942   -8.2905    0.0000 C   0  0  0  0  0  0  0  0  0  0  0  0
   19.2942   -6.7905    0.0000 O   0  0  0  0  0  0  0  0  0  0  0  0
   17.9951   -9.0405    0.0000 C   0  0  0  0  0  0  0  0  0  0  0  0
   17.9951  -10.5405    0.0000 C   0  0  0  0  0  0  0  0  0  0  0  0
   16.6961  -11.2905    0.0000 C   0  0  0  0  0  0  0  0  0  0  0  0
   15.3971  -10.5405    0.0000 C   0  0  0  0  0  0  0  0  0  0  0  0
   15.3971   -9.0405    0.0000 N   0  0  0  0  0  4  0  0  0  0  0  0
   14.0980   -8.2905    0.0000 C   0  0  0  0  0  0  0  0  0  0  0  0
   12.7277   -8.9006    0.0000 O   0  0  0  0  0  0  0  0  0  0  0  0
   11.7240   -7.7859    0.0000 C   0  0  0  0  0  0  0  0  0  0  0  0
   10.2322   -7.9427    0.0000 C   0  0  0  0  0  0  0  0  0  0  0  0
    9.6221   -9.3130    0.0000 O   0  0  0  0  0  0  0  0  0  0  0  0
    8.1303   -9.4698    0.0000 P   0  0  0  0  0  0  0  0  0  0  0  0
    8.2871  -10.9616    0.0000 O   0  0  0  0  0  0  0  0  0  0  0  0
    7.9736   -7.9781    0.0000 O   0  0  0  0  0  1  0  0  0  0  0  0
    6.6386   -9.6266    0.0000 O   0  0  0  0  0  0  0  0  0  0  0  0
    5.7569   -8.4131    0.0000 P   0  0  0  0  0  0  0  0  0  0  0  0
    6.9704   -7.5314    0.0000 O   0  0  0  0  0  0  0  0  0  0  0  0
    4.5434   -9.2948    0.0000 O   0  0  0  0  0  1  0  0  0  0  0  0
    4.8752   -7.1996    0.0000 O   0  0  0  0  0  0  0  0  0  0  0  0
    5.4853   -5.8293    0.0000 C   0  0  0  0  0  0  0  0  0  0  0  0
    4.6036   -4.6157    0.0000 C   0  0  0  0  0  0  0  0  0  0  0  0
    3.1036   -4.6157    0.0000 O   0  0  0  0  0  0  0  0  0  0  0  0
    2.6401   -3.1891    0.0000 C   0  0  0  0  0  0  0  0  0  0  0  0
    1.2135   -2.7256    0.0000 N   0  0  0  0  0  0  0  0  0  0  0  0
   -0.0000   -3.6073    0.0000 C   0  0  0  0  0  0  0  0  0  0  0  0
   -1.2135   -2.7256    0.0000 N   0  0  0  0  0  0  0  0  0  0  0  0
   -0.7500   -1.2990    0.0000 C   0  0  0  0  0  0  0  0  0  0  0  0
    0.7500   -1.2990    0.0000 C   0  0  0  0  0  0  0  0  0  0  0  0
    1.5000    0.0000    0.0000 N   0  0  0  0  0  0  0  0  0  0  0  0
    0.7500    1.2990    0.0000 C   0  0  0  0  0  0  0  0  0  0  0  0
   -0.7500    1.2990    0.0000 N   0  0  0  0  0  0  0  0  0  0  0  0
   -1.5000    0.0000    0.0000 C   0  0  0  0  0  0  0  0  0  0  0  0
   -3.0000    0.0000    0.0000 N   0  0  0  0  0  0  0  0  0  0  0  0
    3.8536   -2.3075    0.0000 C   0  0  0  0  0  0  0  0  0  0  0  0
    3.8536   -0.8075    0.0000 O   0  0  0  0  0  0  0  0  0  0  0  0
    5.0672   -3.1891    0.0000 C   0  0  0  0  0  0  0  0  0  0  0  0
    6.4937   -2.7256    0.0000 O   0  0  0  0  0  0  0  0  0  0  0  0
   12.4740   -6.4869    0.0000 C   0  0  0  0  0  0  0  0  0  0  0  0
   11.8639   -5.1166    0.0000 O   0  0  0  0  0  0  0  0  0  0  0  0
   13.9412   -6.7988    0.0000 C   0  0  0  0  0  0  0  0  0  0  0  0
   15.0560   -5.7951    0.0000 O   0  0  0  0  0  0  0  0  0  0  0  0
   16.6961   -8.2905    0.0000 C   0  0  0  0  0  0  0  0  0  0  0  0
  1  2  1  0
  2  3  2  0
  2  4  1  0
  4  5  2  0
  5  6  1  0
  6  7  2  0
  7  8  1  0
  9  8  1  6
  9 10  1  0
 10 11  1  0
 11 12  1  6
 12 13  1  0
 13 14  1  0
 14 15  2  0
 14 16  1  0
 14 17  1  0
 17 18  1  0
 18 19  2  0
 18 20  1  0
 18 21  1  0
 21 22  1  0
 23 22  1  1
 23 24  1  0
 24 25  1  0
 25 26  1  1
 26 27  1  0
 27 28  2  0
 28 29  1  0
 29 30  2  0
 30 31  1  0
 31 32  2  0
 32 33  1  0
 33 34  2  0
 34 35  1  0
 25 36  1  0
 36 37  1  6
 36 38  1  0
 38 39  1  6
 11 40  1  0
 40 41  1  1
 40 42  1  0
 42 43  1  1
  8 44  2  0
 44  4  1  0
 42  9  1  0
 38 23  1  0
 30 26  1  0
 34 29  1  0
M  CHG  3   8   1  16  -1  20  -1
M  END
