
     RDKit          2D

 22 22  0  0  0  0  0  0  0  0999 V2000
    5.0260    2.7990    0.0000 O   0  0  0  0  0  0  0  0  0  0  0  0
    5.0260    1.2990    0.0000 P   0  0  0  0  0  0  0  0  0  0  0  0
    5.0260   -0.2010    0.0000 O   0  0  0  0  0  1  0  0  0  0  0  0
    6.5260    1.2990    0.0000 O   0  0  0  0  0  1  0  0  0  0  0  0
    3.5260    1.2990    0.0000 O   0  0  0  0  0  0  0  0  0  0  0  0
    2.7760    0.0000    0.0000 C   0  0  0  0  0  0  0  0  0  0  0  0
    1.2760    0.0000    0.0000 C   0  0  0  0  0  0  0  0  0  0  0  0
    0.3943    1.2135    0.0000 O   0  0  0  0  0  0  0  0  0  0  0  0
   -1.0323    0.7500    0.0000 C   0  0  0  0  0  0  0  0  0  0  0  0
   -2.2458    1.6317    0.0000 O   0  0  0  0  0  0  0  0  0  0  0  0
   -2.0890    3.1235    0.0000 P   0  0  0  0  0  0  0  0  0  0  0  0
   -0.5972    2.9667    0.0000 O   0  0  0  0  0  0  0  0  0  0  0  0
   -3.5808    3.2803    0.0000 O   0  0  0  0  0  1  0  0  0  0  0  0
   -1.9322    4.6152    0.0000 O   0  0  0  0  0  0  0  0  0  0  0  0
   -0.5619    5.2253    0.0000 P   0  0  0  0  0  0  0  0  0  0  0  0
   -1.1720    6.5957    0.0000 O   0  0  0  0  0  0  0  0  0  0  0  0
    0.0482    3.8550    0.0000 O   0  0  0  0  0  1  0  0  0  0  0  0
    0.8084    5.8355    0.0000 O   0  0  0  0  0  1  0  0  0  0  0  0
   -1.0323   -0.7500    0.0000 C   0  0  0  0  0  0  0  0  0  0  0  0
   -2.2458   -1.6317    0.0000 O   0  0  0  0  0  0  0  0  0  0  0  0
    0.3943   -1.2135    0.0000 C   0  0  0  0  0  0  0  0  0  0  0  0
    0.8578   -2.6401    0.0000 O   0  0  0  0  0  0  0  0  0  0  0  0
  1  2  2  0
  2  3  1  0
  2  4  1  0
  2  5  1  0
  5  6  1  0
  7  6  1  6
  7  8  1  0
  8  9  1  0
  9 10  1  1
 10 11  1  0
 11 12  2  0
 11 13  1  0
 11 14  1  0
 14 15  1  0
 15 16  2  0
 15 17  1  0
 15 18  1  0
  9 19  1  0
 19 20  1  1
 19 21  1  0
 21 22  1  1
 21  7  1  0
M  CHG  5   3  -1   4  -1  13  -1  17  -1  18  -1
M  END
