
     RDKit          2D

 59 58  0  0  0  0  0  0  0  0999 V2000
   -5.2500   -3.8971    0.0000 C   0  0  0  0  0  0  0  0  0  0  0  0
   -4.5000   -2.5981    0.0000 C   0  0  0  0  0  0  0  0  0  0  0  0
   -5.2500   -1.2990    0.0000 C   0  0  0  0  0  0  0  0  0  0  0  0
   -3.0000   -2.5981    0.0000 C   0  0  0  0  0  0  0  0  0  0  0  0
   -2.2500   -1.2990    0.0000 C   0  0  0  0  0  0  0  0  0  0  0  0
   -0.7500   -1.2990    0.0000 C   0  0  0  0  0  0  0  0  0  0  0  0
    0.0000    0.0000    0.0000 C   0  0  0  0  0  0  0  0  0  0  0  0
   -0.7500    1.2990    0.0000 C   0  0  0  0  0  0  0  0  0  0  0  0
    1.5000    0.0000    0.0000 C   0  0  0  0  0  0  0  0  0  0  0  0
    2.2500    1.2990    0.0000 C   0  0  0  0  0  0  0  0  0  0  0  0
    3.7500    1.2990    0.0000 C   0  0  0  0  0  0  0  0  0  0  0  0
    4.5000    2.5981    0.0000 C   0  0  0  0  0  0  0  0  0  0  0  0
    3.7500    3.8971    0.0000 C   0  0  0  0  0  0  0  0  0  0  0  0
    6.0000    2.5981    0.0000 C   0  0  0  0  0  0  0  0  0  0  0  0
    6.7500    3.8971    0.0000 C   0  0  0  0  0  0  0  0  0  0  0  0
    8.2500    3.8971    0.0000 C   0  0  0  0  0  0  0  0  0  0  0  0
    9.0000    5.1962    0.0000 C   0  0  0  0  0  0  0  0  0  0  0  0
    8.2500    6.4952    0.0000 C   0  0  0  0  0  0  0  0  0  0  0  0
   10.5000    5.1962    0.0000 C   0  0  0  0  0  0  0  0  0  0  0  0
   11.2500    6.4952    0.0000 C   0  0  0  0  0  0  0  0  0  0  0  0
   12.7500    6.4952    0.0000 C   0  0  0  0  0  0  0  0  0  0  0  0
   13.5000    7.7942    0.0000 C   0  0  0  0  0  0  0  0  0  0  0  0
   12.7500    9.0933    0.0000 C   0  0  0  0  0  0  0  0  0  0  0  0
   15.0000    7.7942    0.0000 C   0  0  0  0  0  0  0  0  0  0  0  0
   15.7500    9.0933    0.0000 C   0  0  0  0  0  0  0  0  0  0  0  0
   17.2500    9.0933    0.0000 C   0  0  0  0  0  0  0  0  0  0  0  0
   18.0000   10.3923    0.0000 C   0  0  0  0  0  0  0  0  0  0  0  0
   17.2500   11.6913    0.0000 C   0  0  0  0  0  0  0  0  0  0  0  0
   19.5000   10.3923    0.0000 C   0  0  0  0  0  0  0  0  0  0  0  0
   20.2500   11.6913    0.0000 C   0  0  0  0  0  0  0  0  0  0  0  0
   21.7500   11.6913    0.0000 C   0  0  0  0  0  0  0  0  0  0  0  0
   22.5000   12.9904    0.0000 C   0  0  0  0  0  0  0  0  0  0  0  0
   21.7500   14.2894    0.0000 C   0  0  0  0  0  0  0  0  0  0  0  0
   24.0000   12.9904    0.0000 C   0  0  0  0  0  0  0  0  0  0  0  0
   24.7500   14.2894    0.0000 C   0  0  0  0  0  0  0  0  0  0  0  0
   26.2500   14.2894    0.0000 C   0  0  0  0  0  0  0  0  0  0  0  0
   27.0000   15.5885    0.0000 C   0  0  0  0  0  0  0  0  0  0  0  0
   26.2500   16.8875    0.0000 C   0  0  0  0  0  0  0  0  0  0  0  0
   28.5000   15.5885    0.0000 C   0  0  0  0  0  0  0  0  0  0  0  0
   29.2500   16.8875    0.0000 C   0  0  0  0  0  0  0  0  0  0  0  0
   30.7500   16.8875    0.0000 C   0  0  0  0  0  0  0  0  0  0  0  0
   31.5000   18.1865    0.0000 C   0  0  0  0  0  0  0  0  0  0  0  0
   30.7500   19.4856    0.0000 C   0  0  0  0  0  0  0  0  0  0  0  0
   33.0000   18.1865    0.0000 C   0  0  0  0  0  0  0  0  0  0  0  0
   33.7500   19.4856    0.0000 C   0  0  0  0  0  0  0  0  0  0  0  0
   35.2500   19.4856    0.0000 C   0  0  0  0  0  0  0  0  0  0  0  0
   36.0000   20.7846    0.0000 C   0  0  0  0  0  0  0  0  0  0  0  0
   35.2500   22.0836    0.0000 C   0  0  0  0  0  0  0  0  0  0  0  0
   37.5000   20.7846    0.0000 C   0  0  0  0  0  0  0  0  0  0  0  0
   38.2500   22.0836    0.0000 C   0  0  0  0  0  0  0  0  0  0  0  0
   39.7500   22.0836    0.0000 O   0  0  0  0  0  0  0  0  0  0  0  0
   40.5000   23.3827    0.0000 P   0  0  0  0  0  0  0  0  0  0  0  0
   39.2010   24.1327    0.0000 O   0  0  0  0  0  0  0  0  0  0  0  0
   41.7990   22.6327    0.0000 O   0  0  0  0  0  1  0  0  0  0  0  0
   41.2500   24.6817    0.0000 O   0  0  0  0  0  0  0  0  0  0  0  0
   40.5000   25.9808    0.0000 P   0  0  0  0  0  0  0  0  0  0  0  0
   41.7990   26.7308    0.0000 O   0  0  0  0  0  0  0  0  0  0  0  0
   39.2010   25.2308    0.0000 O   0  0  0  0  0  1  0  0  0  0  0  0
   39.7500   27.2798    0.0000 O   0  0  0  0  0  1  0  0  0  0  0  0
  1  2  1  0
  2  3  1  0
  2  4  2  0
  4  5  1  0
  5  6  1  0
  6  7  1  0
  7  8  1  0
  7  9  2  0
  9 10  1  0
 10 11  1  0
 11 12  1  0
 12 13  1  0
 12 14  2  0
 14 15  1  0
 15 16  1  0
 16 17  1  0
 17 18  1  0
 17 19  2  0
 19 20  1  0
 20 21  1  0
 21 22  1  0
 22 23  1  0
 22 24  2  0
 24 25  1  0
 25 26  1  0
 26 27  1  0
 27 28  1  0
 27 29  2  0
 29 30  1  0
 30 31  1  0
 31 32  1  0
 32 33  1  0
 32 34  2  0
 34 35  1  0
 35 36  1  0
 36 37  1  0
 37 38  1  0
 37 39  2  0
 39 40  1  0
 40 41  1  0
 41 42  1  0
 42 43  1  0
 42 44  2  0
 44 45  1  0
 45 46  1  0
 46 47  1  0
 47 48  1  0
 47 49  2  0
 49 50  1  0
 50 51  1  0
 51 52  1  0
 52 53  2  0
 52 54  1  0
 52 55  1  0
 55 56  1  0
 56 57  2  0
 56 58  1  0
 56 59  1  0
M  CHG  3  54  -1  58  -1  59  -1
M  END
