
     RDKit          2D

 31 36  0  0  0  0  0  0  0  0999 V2000
   -0.0000   -8.6831    0.0000 O   0  0  0  0  0  0  0  0  0  0  0  0
   -0.0000   -7.1831    0.0000 C   0  0  0  0  0  0  0  0  0  0  0  0
   -1.3515   -6.5323    0.0000 N   0  0  0  0  0  0  0  0  0  0  0  0
   -1.6852   -5.0699    0.0000 C   0  0  0  0  0  0  0  0  0  0  0  0
   -3.1476   -4.7361    0.0000 C   0  0  0  0  0  0  0  0  0  0  0  0
   -4.1679   -5.8357    0.0000 C   0  0  0  0  0  0  0  0  0  0  0  0
   -3.8780   -7.3074    0.0000 C   0  0  0  0  0  0  0  0  0  0  0  0
   -5.1881   -8.0379    0.0000 N   0  0  0  0  0  0  0  0  0  0  0  0
   -6.2877   -7.0176    0.0000 C   0  0  0  0  0  0  0  0  0  0  0  0
   -5.6572   -5.6566    0.0000 C   0  0  0  0  0  0  0  0  0  0  0  0
   -6.5206   -4.4300    0.0000 C   0  0  0  0  0  0  0  0  0  0  0  0
   -8.0145   -4.5644    0.0000 C   0  0  0  0  0  0  0  0  0  0  0  0
   -8.6451   -5.9255    0.0000 C   0  0  0  0  0  0  0  0  0  0  0  0
   -7.7817   -7.1521    0.0000 C   0  0  0  0  0  0  0  0  0  0  0  0
   -0.7500   -3.8971    0.0000 C   0  0  0  0  0  0  0  0  0  0  0  0
   -1.5000   -2.5981    0.0000 N   0  0  0  0  0  0  0  0  0  0  0  0
   -0.7500   -1.2990    0.0000 C   0  0  0  0  0  0  0  0  0  0  0  0
    0.7500   -1.2990    0.0000 C   0  0  0  0  0  0  0  0  0  0  0  0
    1.5000    0.0000    0.0000 C   0  0  0  0  0  0  0  0  0  0  0  0
    0.7500    1.2990    0.0000 C   0  0  0  0  0  0  0  0  0  0  0  0
   -0.7500    1.2990    0.0000 C   0  0  0  0  0  0  0  0  0  0  0  0
   -1.5000    0.0000    0.0000 C   0  0  0  0  0  0  0  0  0  0  0  0
    1.5000   -2.5981    0.0000 C   0  0  0  0  0  0  0  0  0  0  0  0
    3.0000   -2.5981    0.0000 O   0  0  0  0  0  0  0  0  0  0  0  0
    0.7500   -3.8971    0.0000 N   0  0  0  0  0  0  0  0  0  0  0  0
    1.6852   -5.0699    0.0000 C   0  0  0  0  0  0  0  0  0  0  0  0
    1.3515   -6.5323    0.0000 C   0  0  0  0  0  0  0  0  0  0  0  0
    2.4510   -7.5525    0.0000 C   0  0  0  0  0  0  0  0  0  0  0  0
    3.8844   -7.1104    0.0000 C   0  0  0  0  0  0  0  0  0  0  0  0
    4.2182   -5.6480    0.0000 C   0  0  0  0  0  0  0  0  0  0  0  0
    3.1186   -4.6277    0.0000 C   0  0  0  0  0  0  0  0  0  0  0  0
  1  2  2  0
  2  3  1  0
  3  4  1  0
  4  5  1  1
  5  6  1  0
  6  7  2  0
  7  8  1  0
  8  9  1  0
  9 10  2  0
 10 11  1  0
 11 12  2  0
 12 13  1  0
 13 14  2  0
  4 15  1  0
 15 16  2  0
 16 17  1  0
 17 18  2  0
 18 19  1  0
 19 20  2  0
 20 21  1  0
 21 22  2  0
 18 23  1  0
 23 24  2  0
 23 25  1  0
 25 26  1  0
 26 27  2  0
 27 28  1  0
 28 29  2  0
 29 30  1  0
 30 31  2  0
 27  2  1  0
 10  6  1  0
 25 15  1  0
 31 26  1  0
 14  9  1  0
 22 17  1  0
M  END
