
     RDKit          2D

 62 67  0  0  0  0  0  0  0  0999 V2000
    8.4689   -5.5157    0.0000 C   0  0  0  0  0  0  0  0  0  0  0  0
    7.8588   -6.8860    0.0000 N   0  0  0  0  0  4  0  0  0  0  0  0
    8.7405   -8.0995    0.0000 C   0  0  0  0  0  0  0  0  0  0  0  0
   10.2322   -7.9427    0.0000 C   0  0  0  0  0  0  0  0  0  0  0  0
   10.8423   -6.5724    0.0000 O   0  0  0  0  0  0  0  0  0  0  0  0
   12.3341   -6.4156    0.0000 C   0  0  0  0  0  0  0  0  0  0  0  0
   13.0841   -5.1166    0.0000 C   0  0  0  0  0  0  0  0  0  0  0  0
   12.4740   -3.7463    0.0000 O   0  0  0  0  0  0  0  0  0  0  0  0
   13.3557   -2.5327    0.0000 C   0  0  0  0  0  0  0  0  0  0  0  0
   14.8475   -2.6895    0.0000 C   0  0  0  0  0  0  0  0  0  0  0  0
   15.4576   -4.0598    0.0000 O   0  0  0  0  0  0  0  0  0  0  0  0
   15.7292   -1.4760    0.0000 C   0  0  0  0  0  0  0  0  0  0  0  0
   17.2209   -1.6328    0.0000 O   0  0  0  0  0  0  0  0  0  0  0  0
   15.1191   -0.1057    0.0000 C   0  0  0  0  0  0  0  0  0  0  0  0
   16.0007    1.1078    0.0000 N   0  0  0  0  0  0  0  0  0  0  0  0
   15.3906    2.4782    0.0000 C   0  0  0  0  0  0  0  0  0  0  0  0
   16.2723    3.6917    0.0000 N   0  0  0  0  0  0  0  0  0  0  0  0
   13.8988    2.6350    0.0000 N   0  0  0  0  0  4  0  0  0  0  0  0
   13.6273    0.0511    0.0000 C   0  0  0  0  0  0  0  0  0  0  0  0
   13.0172    1.4214    0.0000 O   0  0  0  0  0  0  0  0  0  0  0  0
   12.7456   -1.1624    0.0000 C   0  0  0  0  0  0  0  0  0  0  0  0
   11.2538   -1.0056    0.0000 N   0  0  0  0  0  0  0  0  0  0  0  0
   10.6437    0.3647    0.0000 C   0  0  0  0  0  0  0  0  0  0  0  0
    9.1519    0.5215    0.0000 N   0  0  0  0  0  0  0  0  0  0  0  0
   11.5254    1.5782    0.0000 N   0  0  0  0  0  4  0  0  0  0  0  0
   14.5513   -5.4284    0.0000 O   0  0  0  0  0  0  0  0  0  0  0  0
   14.7081   -6.9202    0.0000 C   0  0  0  0  0  0  0  0  0  0  0  0
   16.0072   -7.6702    0.0000 C   0  0  0  0  0  0  0  0  0  0  0  0
   13.3378   -7.5303    0.0000 C   0  0  0  0  0  0  0  0  0  0  0  0
   12.1243   -8.4120    0.0000 O   0  0  0  0  0  0  0  0  0  0  0  0
   14.0878   -8.8294    0.0000 C   0  0  0  0  0  0  0  0  0  0  0  0
   13.3378  -10.1284    0.0000 O   0  0  0  0  0  0  0  0  0  0  0  0
   11.1139   -9.1562    0.0000 O   0  0  0  0  0  0  0  0  0  0  0  0
   10.5038  -10.5266    0.0000 C   0  0  0  0  0  0  0  0  0  0  0  0
   11.3855  -11.7401    0.0000 C   0  0  0  0  0  0  0  0  0  0  0  0
   10.7754  -13.1104    0.0000 O   0  0  0  0  0  0  0  0  0  0  0  0
    9.0120  -10.6834    0.0000 C   0  0  0  0  0  0  0  0  0  0  0  0
    8.4019  -12.0537    0.0000 O   0  0  0  0  0  0  0  0  0  0  0  0
    8.1303   -9.4698    0.0000 C   0  0  0  0  0  0  0  0  0  0  0  0
    6.6386   -9.6266    0.0000 O   0  0  0  0  0  0  0  0  0  0  0  0
    5.7569   -8.4131    0.0000 P   0  0  0  0  0  0  0  0  0  0  0  0
    6.9704   -7.5314    0.0000 O   0  0  0  0  0  0  0  0  0  0  0  0
    4.5434   -9.2948    0.0000 O   0  0  0  0  0  1  0  0  0  0  0  0
    4.8752   -7.1996    0.0000 O   0  0  0  0  0  0  0  0  0  0  0  0
    5.4853   -5.8293    0.0000 C   0  0  0  0  0  0  0  0  0  0  0  0
    4.6036   -4.6157    0.0000 C   0  0  0  0  0  0  0  0  0  0  0  0
    3.1036   -4.6157    0.0000 O   0  0  0  0  0  0  0  0  0  0  0  0
    2.6401   -3.1891    0.0000 C   0  0  0  0  0  0  0  0  0  0  0  0
    1.2135   -2.7256    0.0000 N   0  0  0  0  0  0  0  0  0  0  0  0
   -0.0000   -3.6073    0.0000 C   0  0  0  0  0  0  0  0  0  0  0  0
   -1.2135   -2.7256    0.0000 N   0  0  0  0  0  0  0  0  0  0  0  0
   -0.7500   -1.2990    0.0000 C   0  0  0  0  0  0  0  0  0  0  0  0
    0.7500   -1.2990    0.0000 C   0  0  0  0  0  0  0  0  0  0  0  0
    1.5000    0.0000    0.0000 N   0  0  0  0  0  0  0  0  0  0  0  0
    0.7500    1.2990    0.0000 C   0  0  0  0  0  0  0  0  0  0  0  0
   -0.7500    1.2990    0.0000 N   0  0  0  0  0  0  0  0  0  0  0  0
   -1.5000    0.0000    0.0000 C   0  0  0  0  0  0  0  0  0  0  0  0
   -3.0000    0.0000    0.0000 N   0  0  0  0  0  0  0  0  0  0  0  0
    3.8536   -2.3075    0.0000 C   0  0  0  0  0  0  0  0  0  0  0  0
    3.8536   -0.8075    0.0000 O   0  0  0  0  0  0  0  0  0  0  0  0
    5.0672   -3.1891    0.0000 C   0  0  0  0  0  0  0  0  0  0  0  0
    6.4937   -2.7256    0.0000 O   0  0  0  0  0  0  0  0  0  0  0  0
  1  2  1  0
  3  2  1  6
  3  4  1  0
  4  5  1  6
  6  5  1  1
  6  7  1  0
  7  8  1  6
  9  8  1  6
  9 10  1  0
 10 11  1  1
 10 12  1  0
 12 13  1  6
 12 14  1  0
 14 15  1  1
 15 16  1  0
 16 17  1  0
 16 18  2  0
 14 19  1  0
 19 20  1  6
 19 21  1  0
 21 22  1  1
 22 23  1  0
 23 24  1  0
 23 25  2  0
  7 26  1  0
 26 27  1  0
 27 28  1  1
 27 29  1  0
 29 30  1  1
 29 31  1  0
 31 32  2  0
  4 33  1  0
 33 34  1  0
 34 35  1  1
 35 36  1  0
 34 37  1  0
 37 38  1  6
 37 39  1  0
 39 40  1  1
 40 41  1  0
 41 42  2  0
 41 43  1  0
 41 44  1  0
 44 45  1  0
 46 45  1  1
 46 47  1  0
 47 48  1  0
 48 49  1  1
 49 50  1  0
 50 51  2  0
 51 52  1  0
 52 53  2  0
 53 54  1  0
 54 55  2  0
 55 56  1  0
 56 57  2  0
 57 58  1  0
 48 59  1  0
 59 60  1  6
 59 61  1  0
 61 62  1  6
 39  3  1  0
 61 46  1  0
 29  6  1  0
 53 49  1  0
 21  9  1  0
 57 52  1  0
M  CHG  4   2   1  18   1  25   1  43  -1
M  END
