
     RDKit          2D

 74 80  0  0  0  0  0  0  0  0999 V2000
   -0.7500   -1.2990    0.0000 C   0  0  0  0  0  0  0  0  0  0  0  0
   -1.5000   -2.5981    0.0000 C   0  0  0  0  0  0  0  0  0  0  0  0
   -0.7500   -3.8971    0.0000 C   0  0  0  0  0  0  0  0  0  0  0  0
    0.7500   -3.8971    0.0000 C   0  0  0  0  0  0  0  0  0  0  0  0
    1.5000   -5.1962    0.0000 C   0  0  0  0  0  0  0  0  0  0  0  0
    1.0365   -6.6227    0.0000 C   0  0  0  0  0  0  0  0  0  0  0  0
    2.2500   -7.5044    0.0000 C   0  0  0  0  0  0  0  0  0  0  0  0
    3.4635   -6.6227    0.0000 C   0  0  0  0  0  0  0  0  0  0  0  0
    4.8901   -7.0863    0.0000 C   0  0  0  0  0  0  0  0  0  0  0  0
    5.2020   -8.5535    0.0000 C   0  0  0  0  0  0  0  0  0  0  0  0
    6.0048   -6.0826    0.0000 C   0  0  0  0  0  0  0  0  0  0  0  0
    7.4314   -6.5461    0.0000 C   0  0  0  0  0  0  0  0  0  0  0  0
    8.5461   -5.5424    0.0000 C   0  0  0  0  0  0  0  0  0  0  0  0
    9.9727   -6.0059    0.0000 O   0  0  0  0  0  0  0  0  0  0  0  0
    8.2343   -4.0752    0.0000 S   0  0  0  0  0  0  0  0  0  0  0  0
    9.3490   -3.0715    0.0000 C   0  0  0  0  0  0  0  0  0  0  0  0
    9.0371   -1.6043    0.0000 C   0  0  0  0  0  0  0  0  0  0  0  0
   10.1518   -0.6006    0.0000 N   0  0  0  0  0  0  0  0  0  0  0  0
    9.8400    0.8667    0.0000 C   0  0  0  0  0  0  0  0  0  0  0  0
    8.4134    1.3302    0.0000 O   0  0  0  0  0  0  0  0  0  0  0  0
   10.9547    1.8704    0.0000 C   0  0  0  0  0  0  0  0  0  0  0  0
   10.6428    3.3376    0.0000 C   0  0  0  0  0  0  0  0  0  0  0  0
   11.7575    4.3413    0.0000 N   0  0  0  0  0  0  0  0  0  0  0  0
   11.4457    5.8085    0.0000 C   0  0  0  0  0  0  0  0  0  0  0  0
   10.0191    6.2720    0.0000 O   0  0  0  0  0  0  0  0  0  0  0  0
   12.5604    6.8122    0.0000 C   0  0  0  0  0  0  0  0  0  0  0  0
   13.9870    6.3487    0.0000 O   0  0  0  0  0  0  0  0  0  0  0  0
   12.2485    8.2794    0.0000 C   0  0  0  0  0  0  0  0  0  0  0  0
   13.7157    8.5913    0.0000 C   0  0  0  0  0  0  0  0  0  0  0  0
   10.7813    7.9675    0.0000 C   0  0  0  0  0  0  0  0  0  0  0  0
   11.9366    9.7466    0.0000 C   0  0  0  0  0  0  0  0  0  0  0  0
   10.5101   10.2102    0.0000 O   0  0  0  0  0  0  0  0  0  0  0  0
   10.1982   11.6774    0.0000 P   0  0  0  0  0  0  0  0  0  0  0  0
   11.6654   11.9892    0.0000 O   0  0  0  0  0  0  0  0  0  0  0  0
    8.7310   11.3655    0.0000 O   0  0  0  0  0  1  0  0  0  0  0  0
    9.8863   13.1446    0.0000 O   0  0  0  0  0  0  0  0  0  0  0  0
   11.0010   14.1483    0.0000 P   0  0  0  0  0  0  0  0  0  0  0  0
    9.9973   15.2630    0.0000 O   0  0  0  0  0  0  0  0  0  0  0  0
   12.0047   13.0336    0.0000 O   0  0  0  0  0  1  0  0  0  0  0  0
   12.1158   15.1520    0.0000 O   0  0  0  0  0  0  0  0  0  0  0  0
   13.5423   14.6885    0.0000 C   0  0  0  0  0  0  0  0  0  0  0  0
   14.6571   15.6922    0.0000 C   0  0  0  0  0  0  0  0  0  0  0  0
   14.5003   17.1839    0.0000 O   0  0  0  0  0  0  0  0  0  0  0  0
   15.8706   17.7941    0.0000 C   0  0  0  0  0  0  0  0  0  0  0  0
   16.1825   19.2613    0.0000 N   0  0  0  0  0  0  0  0  0  0  0  0
   15.1788   20.3760    0.0000 C   0  0  0  0  0  0  0  0  0  0  0  0
   15.9288   21.6750    0.0000 N   0  0  0  0  0  0  0  0  0  0  0  0
   17.3960   21.3632    0.0000 C   0  0  0  0  0  0  0  0  0  0  0  0
   17.5528   19.8714    0.0000 C   0  0  0  0  0  0  0  0  0  0  0  0
   18.9231   19.2613    0.0000 N   0  0  0  0  0  0  0  0  0  0  0  0
   20.1366   20.1430    0.0000 C   0  0  0  0  0  0  0  0  0  0  0  0
   19.9798   21.6347    0.0000 N   0  0  0  0  0  0  0  0  0  0  0  0
   18.6095   22.2448    0.0000 C   0  0  0  0  0  0  0  0  0  0  0  0
   18.4527   23.7366    0.0000 N   0  0  0  0  0  0  0  0  0  0  0  0
   16.8743   16.6793    0.0000 C   0  0  0  0  0  0  0  0  0  0  0  0
   18.3661   16.8361    0.0000 O   0  0  0  0  0  0  0  0  0  0  0  0
   16.1243   15.3803    0.0000 C   0  0  0  0  0  0  0  0  0  0  0  0
   16.7344   14.0100    0.0000 O   0  0  0  0  0  0  0  0  0  0  0  0
   15.8527   12.7965    0.0000 P   0  0  0  0  0  0  0  0  0  0  0  0
   17.0662   11.9148    0.0000 O   0  0  0  0  0  0  0  0  0  0  0  0
   14.6392   13.6781    0.0000 O   0  0  0  0  0  1  0  0  0  0  0  0
   14.9710   11.5829    0.0000 O   0  0  0  0  0  1  0  0  0  0  0  0
    3.0000   -5.1962    0.0000 C   0  0  0  0  0  0  0  0  0  0  0  0
    4.4918   -5.3529    0.0000 C   0  0  0  0  0  0  0  0  0  0  0  0
    3.7500   -3.8971    0.0000 C   0  0  0  0  0  0  0  0  0  0  0  0
    3.0000   -2.5981    0.0000 C   0  0  0  0  0  0  0  0  0  0  0  0
    1.5000   -2.5981    0.0000 C   0  0  0  0  0  0  0  0  0  0  0  0
    0.7500   -1.2990    0.0000 C   0  0  0  0  0  0  0  0  0  0  0  0
    2.2500   -1.2990    0.0000 C   0  0  0  0  0  0  0  0  0  0  0  0
    1.5000    0.0000    0.0000 C   0  0  0  0  0  0  0  0  0  0  0  0
    0.7500    1.2990    0.0000 C   0  0  0  0  0  0  0  0  0  0  0  0
   -0.7500    1.2990    0.0000 C   0  0  0  0  0  0  0  0  0  0  0  0
   -1.5000    2.5981    0.0000 O   0  0  0  0  0  0  0  0  0  0  0  0
   -1.5000    0.0000    0.0000 C   0  0  0  0  0  0  0  0  0  0  0  0
  1  2  1  6
  2  3  1  0
  4  3  1  6
  4  5  1  0
  5  6  1  1
  6  7  1  0
  8  7  1  1
  8  9  1  0
  9 10  1  1
  9 11  1  0
 11 12  1  0
 12 13  1  0
 13 14  2  0
 13 15  1  0
 15 16  1  0
 16 17  1  0
 17 18  1  0
 18 19  1  0
 19 20  2  0
 19 21  1  0
 21 22  1  0
 22 23  1  0
 23 24  1  0
 24 25  2  0
 24 26  1  0
 26 27  1  1
 26 28  1  0
 28 29  1  0
 28 30  1  0
 28 31  1  0
 31 32  1  0
 32 33  1  0
 33 34  2  0
 33 35  1  0
 33 36  1  0
 36 37  1  0
 37 38  2  0
 37 39  1  0
 37 40  1  0
 40 41  1  0
 42 41  1  1
 42 43  1  0
 43 44  1  0
 44 45  1  1
 45 46  1  0
 46 47  2  0
 47 48  1  0
 48 49  2  0
 49 50  1  0
 50 51  2  0
 51 52  1  0
 52 53  2  0
 53 54  1  0
 44 55  1  0
 55 56  1  6
 55 57  1  0
 57 58  1  6
 58 59  1  0
 59 60  2  0
 59 61  1  0
 59 62  1  0
  8 63  1  0
 63 64  1  1
 63 65  1  0
 65 66  1  0
 67 66  1  1
 67 68  1  0
 68 69  1  1
 68 70  1  0
 70 71  1  0
 71 72  1  0
 72 73  2  0
 72 74  1  0
 68  1  1  0
 74  1  1  0
 67  4  1  0
 63  5  1  0
 57 42  1  0
 49 45  1  0
 53 48  1  0
M  CHG  4  35  -1  39  -1  61  -1  62  -1
M  END
