
     RDKit          2D

 14 14  0  0  0  0  0  0  0  0999 V2000
    3.9786    1.2990    0.0000 O   0  0  0  0  0  0  0  0  0  0  0  0
    3.2286   -0.0000    0.0000 C   0  0  0  0  0  0  0  0  0  0  0  0
    3.9786   -1.2990    0.0000 O   0  0  0  0  0  1  0  0  0  0  0  0
    1.7286    0.0000    0.0000 C   0  0  0  0  0  0  0  0  0  0  0  0
    1.0777    1.3515    0.0000 C   0  0  0  0  0  0  0  0  0  0  0  0
   -0.3846    1.6852    0.0000 O   0  0  0  0  0  0  0  0  0  0  0  0
   -1.5574    0.7500    0.0000 P   0  0  0  0  0  0  0  0  0  0  0  0
   -3.0198    0.4162    0.0000 O   0  0  0  0  0  0  0  0  0  0  0  0
   -2.2082    2.1015    0.0000 O   0  0  0  0  0  1  0  0  0  0  0  0
   -1.5574   -0.7500    0.0000 O   0  0  0  0  0  0  0  0  0  0  0  0
   -0.3846   -1.6852    0.0000 P   0  0  0  0  0  0  0  0  0  0  0  0
    0.2662   -3.0367    0.0000 O   0  0  0  0  0  0  0  0  0  0  0  0
   -1.5574   -2.6205    0.0000 O   0  0  0  0  0  1  0  0  0  0  0  0
    1.0777   -1.3515    0.0000 O   0  0  0  0  0  0  0  0  0  0  0  0
  1  2  2  0
  2  3  1  0
  4  2  1  6
  4  5  1  0
  5  6  1  0
  6  7  1  0
  7  8  2  0
  7  9  1  0
  7 10  1  0
 10 11  1  0
 11 12  2  0
 11 13  1  0
 11 14  1  0
 14  4  1  0
M  CHG  3   3  -1   9  -1  13  -1
M  END
